
---------- Begin Simulation Statistics ----------
final_tick                               207247056865                       # Number of ticks from beginning of simulation (restored from checkpoints and never reset)
host_inst_rate                                 378822                       # Simulator instruction rate (inst/s)
host_mem_usage                               16965264                       # Number of bytes of host memory used
host_op_rate                                   417293                       # Simulator op (including micro ops) rate (op/s)
host_seconds                                     2.64                       # Real time elapsed on the host
host_tick_rate                               65667451                       # Simulator tick rate (ticks/s)
sim_freq                                 1000000000000                       # Frequency of simulated ticks
sim_insts                                     1000032                       # Number of instructions simulated
sim_ops                                       1101612                       # Number of ops (including micro ops) simulated
sim_seconds                                  0.000173                       # Number of seconds simulated
sim_ticks                                   173356065                       # Number of ticks simulated
system.cpu.Branches                                 3                       # Number of branches fetched
system.cpu.committedInsts                          30                       # Number of instructions committed
system.cpu.committedOps                            31                       # Number of ops (including micro ops) committed
system.cpu.idle_fraction                            0                       # Percentage of idle cycles
system.cpu.not_idle_fraction                        1                       # Percentage of non-idle cycles
system.cpu.numCycles                               31                       # number of cpu cycles simulated
system.cpu.numWorkItemsCompleted                    0                       # number of work items this cpu completed
system.cpu.numWorkItemsStarted                      0                       # number of work items this cpu started
system.cpu.num_busy_cycles                         31                       # Number of busy cycles
system.cpu.num_cc_register_reads                    9                       # number of times the CC registers were read
system.cpu.num_cc_register_writes                   9                       # number of times the CC registers were written
system.cpu.num_conditional_control_insts            3                       # number of instructions that are conditional controls
system.cpu.num_fp_alu_accesses                      0                       # Number of float alu accesses
system.cpu.num_fp_insts                             0                       # number of float instructions
system.cpu.num_fp_register_reads                    0                       # number of times the floating registers were read
system.cpu.num_fp_register_writes                   0                       # number of times the floating registers were written
system.cpu.num_func_calls                           0                       # number of times a function call or return occured
system.cpu.num_idle_cycles                          0                       # Number of idle cycles
system.cpu.num_int_alu_accesses                    28                       # Number of integer alu accesses
system.cpu.num_int_insts                           28                       # number of integer instructions
system.cpu.num_int_register_reads                  40                       # number of times the integer registers were read
system.cpu.num_int_register_writes                 29                       # number of times the integer registers were written
system.cpu.num_load_insts                           7                       # Number of load instructions
system.cpu.num_mem_refs                             7                       # number of memory refs
system.cpu.num_store_insts                          0                       # Number of store instructions
system.cpu.num_vec_alu_accesses                     0                       # Number of vector alu accesses
system.cpu.num_vec_insts                            0                       # number of vector instructions
system.cpu.num_vec_register_reads                   0                       # number of times the vector registers were read
system.cpu.num_vec_register_writes                  0                       # number of times the vector registers were written
system.cpu.op_class::No_OpClass                     0      0.00%      0.00% # Class of executed instruction
system.cpu.op_class::IntAlu                        22     70.97%     70.97% # Class of executed instruction
system.cpu.op_class::IntMult                        2      6.45%     77.42% # Class of executed instruction
system.cpu.op_class::IntDiv                         0      0.00%     77.42% # Class of executed instruction
system.cpu.op_class::FloatAdd                       0      0.00%     77.42% # Class of executed instruction
system.cpu.op_class::FloatCmp                       0      0.00%     77.42% # Class of executed instruction
system.cpu.op_class::FloatCvt                       0      0.00%     77.42% # Class of executed instruction
system.cpu.op_class::FloatMult                      0      0.00%     77.42% # Class of executed instruction
system.cpu.op_class::FloatMultAcc                   0      0.00%     77.42% # Class of executed instruction
system.cpu.op_class::FloatDiv                       0      0.00%     77.42% # Class of executed instruction
system.cpu.op_class::FloatMisc                      0      0.00%     77.42% # Class of executed instruction
system.cpu.op_class::FloatSqrt                      0      0.00%     77.42% # Class of executed instruction
system.cpu.op_class::SimdAdd                        0      0.00%     77.42% # Class of executed instruction
system.cpu.op_class::SimdAddAcc                     0      0.00%     77.42% # Class of executed instruction
system.cpu.op_class::SimdAlu                        0      0.00%     77.42% # Class of executed instruction
system.cpu.op_class::SimdCmp                        0      0.00%     77.42% # Class of executed instruction
system.cpu.op_class::SimdCvt                        0      0.00%     77.42% # Class of executed instruction
system.cpu.op_class::SimdMisc                       0      0.00%     77.42% # Class of executed instruction
system.cpu.op_class::SimdMult                       0      0.00%     77.42% # Class of executed instruction
system.cpu.op_class::SimdMultAcc                    0      0.00%     77.42% # Class of executed instruction
system.cpu.op_class::SimdShift                      0      0.00%     77.42% # Class of executed instruction
system.cpu.op_class::SimdShiftAcc                   0      0.00%     77.42% # Class of executed instruction
system.cpu.op_class::SimdDiv                        0      0.00%     77.42% # Class of executed instruction
system.cpu.op_class::SimdSqrt                       0      0.00%     77.42% # Class of executed instruction
system.cpu.op_class::SimdFloatAdd                   0      0.00%     77.42% # Class of executed instruction
system.cpu.op_class::SimdFloatAlu                   0      0.00%     77.42% # Class of executed instruction
system.cpu.op_class::SimdFloatCmp                   0      0.00%     77.42% # Class of executed instruction
system.cpu.op_class::SimdFloatCvt                   0      0.00%     77.42% # Class of executed instruction
system.cpu.op_class::SimdFloatDiv                   0      0.00%     77.42% # Class of executed instruction
system.cpu.op_class::SimdFloatMisc                  0      0.00%     77.42% # Class of executed instruction
system.cpu.op_class::SimdFloatMult                  0      0.00%     77.42% # Class of executed instruction
system.cpu.op_class::SimdFloatMultAcc               0      0.00%     77.42% # Class of executed instruction
system.cpu.op_class::SimdFloatSqrt                  0      0.00%     77.42% # Class of executed instruction
system.cpu.op_class::SimdReduceAdd                  0      0.00%     77.42% # Class of executed instruction
system.cpu.op_class::SimdReduceAlu                  0      0.00%     77.42% # Class of executed instruction
system.cpu.op_class::SimdReduceCmp                  0      0.00%     77.42% # Class of executed instruction
system.cpu.op_class::SimdFloatReduceAdd             0      0.00%     77.42% # Class of executed instruction
system.cpu.op_class::SimdFloatReduceCmp             0      0.00%     77.42% # Class of executed instruction
system.cpu.op_class::SimdAes                        0      0.00%     77.42% # Class of executed instruction
system.cpu.op_class::SimdAesMix                     0      0.00%     77.42% # Class of executed instruction
system.cpu.op_class::SimdSha1Hash                   0      0.00%     77.42% # Class of executed instruction
system.cpu.op_class::SimdSha1Hash2                  0      0.00%     77.42% # Class of executed instruction
system.cpu.op_class::SimdSha256Hash                 0      0.00%     77.42% # Class of executed instruction
system.cpu.op_class::SimdSha256Hash2                0      0.00%     77.42% # Class of executed instruction
system.cpu.op_class::SimdShaSigma2                  0      0.00%     77.42% # Class of executed instruction
system.cpu.op_class::SimdShaSigma3                  0      0.00%     77.42% # Class of executed instruction
system.cpu.op_class::SimdPredAlu                    0      0.00%     77.42% # Class of executed instruction
system.cpu.op_class::MemRead                        7     22.58%    100.00% # Class of executed instruction
system.cpu.op_class::MemWrite                       0      0.00%    100.00% # Class of executed instruction
system.cpu.op_class::FloatMemRead                   0      0.00%    100.00% # Class of executed instruction
system.cpu.op_class::FloatMemWrite                  0      0.00%    100.00% # Class of executed instruction
system.cpu.op_class::IprAccess                      0      0.00%    100.00% # Class of executed instruction
system.cpu.op_class::InstPrefetch                   0      0.00%    100.00% # Class of executed instruction
system.cpu.op_class::total                         31                       # Class of executed instruction
system.cpu.workload.numSyscalls                     0                       # Number of system calls
system.membus.snoop_filter.hit_multi_requests            0                       # Number of requests hitting in the snoop filter with multiple (>1) holders of the requested data.
system.membus.snoop_filter.hit_multi_snoops            0                       # Number of snoops hitting in the snoop filter with multiple (>1) holders of the requested data.
system.membus.snoop_filter.hit_single_requests            0                       # Number of requests hitting in the snoop filter with a single holder of the requested data.
system.membus.snoop_filter.hit_single_snoops            0                       # Number of snoops hitting in the snoop filter with a single holder of the requested data.
system.membus.snoop_filter.tot_requests           172                       # Total number of requests made to the snoop filter.
system.membus.snoop_filter.tot_snoops               0                       # Total number of snoops made to the snoop filter.
system.switch_cpus.cc_regfile_reads            206319                       # number of cc regfile reads
system.switch_cpus.cc_regfile_writes           207708                       # number of cc regfile writes
system.switch_cpus.committedInsts             1000002                       # Number of Instructions Simulated
system.switch_cpus.committedOps               1101581                       # Number of Ops (including micro ops) Simulated
system.switch_cpus.cpi                       0.536674                       # CPI: Cycles Per Instruction
system.switch_cpus.cpi_total                 0.536674                       # CPI: Total CPI of All Threads
system.switch_cpus.idleCycles                    5352                       # Total number of cycles that the CPU has spent unscheduled due to idling
system.switch_cpus.iew.branchMispredicts         2874                       # Number of branch mispredicts detected at execute
system.switch_cpus.iew.exec_branches           131027                       # Number of branches executed
system.switch_cpus.iew.exec_nop                  3793                       # number of nop insts executed
system.switch_cpus.iew.exec_rate             2.334254                       # Inst execution rate
system.switch_cpus.iew.exec_refs               560212                       # number of memory reference insts executed
system.switch_cpus.iew.exec_stores             201986                       # Number of stores executed
system.switch_cpus.iew.exec_swp                     0                       # number of swp insts executed
system.switch_cpus.iew.iewBlockCycles           26837                       # Number of cycles IEW is blocking
system.switch_cpus.iew.iewDispLoadInsts        370456                       # Number of dispatched load instructions
system.switch_cpus.iew.iewDispNonSpecInsts            0                       # Number of dispatched non-speculative instructions
system.switch_cpus.iew.iewDispSquashedInsts          112                       # Number of squashed instructions skipped by dispatch
system.switch_cpus.iew.iewDispStoreInsts       220860                       # Number of dispatched store instructions
system.switch_cpus.iew.iewDispatchedInsts      1322389                       # Number of instructions dispatched to IQ
system.switch_cpus.iew.iewExecLoadInsts        358226                       # Number of load instructions executed
system.switch_cpus.iew.iewExecSquashedInsts         4782                       # Number of squashed instructions skipped in execute
system.switch_cpus.iew.iewExecutedInsts       1252736                       # Number of executed instructions
system.switch_cpus.iew.iewIQFullEvents             10                       # Number of times the IQ has become full, causing a stall
system.switch_cpus.iew.iewIdleCycles                0                       # Number of cycles IEW is idle
system.switch_cpus.iew.iewLSQFullEvents         13423                       # Number of times the LSQ has become full, causing a stall
system.switch_cpus.iew.iewSquashCycles           2997                       # Number of cycles IEW is squashing
system.switch_cpus.iew.iewUnblockCycles         13426                       # Number of cycles IEW is unblocking
system.switch_cpus.iew.memOrderViolationEvents          186                       # Number of memory order violations
system.switch_cpus.iew.predictedNotTakenIncorrect         1163                       # Number of branches that were predicted not taken incorrectly
system.switch_cpus.iew.predictedTakenIncorrect         1711                       # Number of branches that were predicted taken incorrectly
system.switch_cpus.iew.wb_consumers           1250492                       # num instructions consuming a value
system.switch_cpus.iew.wb_count               1233234                       # cumulative count of insts written-back
system.switch_cpus.iew.wb_fanout             0.671832                       # average fanout of values written-back
system.switch_cpus.iew.wb_producers            840121                       # num instructions producing a value
system.switch_cpus.iew.wb_rate               2.297916                       # insts written-back per cycle
system.switch_cpus.iew.wb_sent                1234196                       # cumulative count of insts sent to commit
system.switch_cpus.int_regfile_reads          1579242                       # number of integer regfile reads
system.switch_cpus.int_regfile_writes          962576                       # number of integer regfile writes
system.switch_cpus.ipc                       1.863329                       # IPC: Instructions Per Cycle
system.switch_cpus.ipc_total                 1.863329                       # IPC: Total IPC of All Threads
system.switch_cpus.iq.FU_type_0::No_OpClass           39      0.00%      0.00% # Type of FU issued
system.switch_cpus.iq.FU_type_0::IntAlu        653377     51.96%     51.96% # Type of FU issued
system.switch_cpus.iq.FU_type_0::IntMult        40892      3.25%     55.21% # Type of FU issued
system.switch_cpus.iq.FU_type_0::IntDiv             0      0.00%     55.21% # Type of FU issued
system.switch_cpus.iq.FU_type_0::FloatAdd            0      0.00%     55.21% # Type of FU issued
system.switch_cpus.iq.FU_type_0::FloatCmp            0      0.00%     55.21% # Type of FU issued
system.switch_cpus.iq.FU_type_0::FloatCvt            0      0.00%     55.21% # Type of FU issued
system.switch_cpus.iq.FU_type_0::FloatMult            0      0.00%     55.21% # Type of FU issued
system.switch_cpus.iq.FU_type_0::FloatMultAcc            0      0.00%     55.21% # Type of FU issued
system.switch_cpus.iq.FU_type_0::FloatDiv            0      0.00%     55.21% # Type of FU issued
system.switch_cpus.iq.FU_type_0::FloatMisc            0      0.00%     55.21% # Type of FU issued
system.switch_cpus.iq.FU_type_0::FloatSqrt            0      0.00%     55.21% # Type of FU issued
system.switch_cpus.iq.FU_type_0::SimdAdd            0      0.00%     55.21% # Type of FU issued
system.switch_cpus.iq.FU_type_0::SimdAddAcc            0      0.00%     55.21% # Type of FU issued
system.switch_cpus.iq.FU_type_0::SimdAlu            0      0.00%     55.21% # Type of FU issued
system.switch_cpus.iq.FU_type_0::SimdCmp            0      0.00%     55.21% # Type of FU issued
system.switch_cpus.iq.FU_type_0::SimdCvt            0      0.00%     55.21% # Type of FU issued
system.switch_cpus.iq.FU_type_0::SimdMisc            0      0.00%     55.21% # Type of FU issued
system.switch_cpus.iq.FU_type_0::SimdMult            0      0.00%     55.21% # Type of FU issued
system.switch_cpus.iq.FU_type_0::SimdMultAcc            0      0.00%     55.21% # Type of FU issued
system.switch_cpus.iq.FU_type_0::SimdShift            0      0.00%     55.21% # Type of FU issued
system.switch_cpus.iq.FU_type_0::SimdShiftAcc            0      0.00%     55.21% # Type of FU issued
system.switch_cpus.iq.FU_type_0::SimdDiv            0      0.00%     55.21% # Type of FU issued
system.switch_cpus.iq.FU_type_0::SimdSqrt            0      0.00%     55.21% # Type of FU issued
system.switch_cpus.iq.FU_type_0::SimdFloatAdd            0      0.00%     55.21% # Type of FU issued
system.switch_cpus.iq.FU_type_0::SimdFloatAlu            0      0.00%     55.21% # Type of FU issued
system.switch_cpus.iq.FU_type_0::SimdFloatCmp            0      0.00%     55.21% # Type of FU issued
system.switch_cpus.iq.FU_type_0::SimdFloatCvt            0      0.00%     55.21% # Type of FU issued
system.switch_cpus.iq.FU_type_0::SimdFloatDiv            0      0.00%     55.21% # Type of FU issued
system.switch_cpus.iq.FU_type_0::SimdFloatMisc            0      0.00%     55.21% # Type of FU issued
system.switch_cpus.iq.FU_type_0::SimdFloatMult            0      0.00%     55.21% # Type of FU issued
system.switch_cpus.iq.FU_type_0::SimdFloatMultAcc            0      0.00%     55.21% # Type of FU issued
system.switch_cpus.iq.FU_type_0::SimdFloatSqrt            0      0.00%     55.21% # Type of FU issued
system.switch_cpus.iq.FU_type_0::SimdReduceAdd            0      0.00%     55.21% # Type of FU issued
system.switch_cpus.iq.FU_type_0::SimdReduceAlu            0      0.00%     55.21% # Type of FU issued
system.switch_cpus.iq.FU_type_0::SimdReduceCmp            0      0.00%     55.21% # Type of FU issued
system.switch_cpus.iq.FU_type_0::SimdFloatReduceAdd            0      0.00%     55.21% # Type of FU issued
system.switch_cpus.iq.FU_type_0::SimdFloatReduceCmp            0      0.00%     55.21% # Type of FU issued
system.switch_cpus.iq.FU_type_0::SimdAes            0      0.00%     55.21% # Type of FU issued
system.switch_cpus.iq.FU_type_0::SimdAesMix            0      0.00%     55.21% # Type of FU issued
system.switch_cpus.iq.FU_type_0::SimdSha1Hash            0      0.00%     55.21% # Type of FU issued
system.switch_cpus.iq.FU_type_0::SimdSha1Hash2            0      0.00%     55.21% # Type of FU issued
system.switch_cpus.iq.FU_type_0::SimdSha256Hash            0      0.00%     55.21% # Type of FU issued
system.switch_cpus.iq.FU_type_0::SimdSha256Hash2            0      0.00%     55.21% # Type of FU issued
system.switch_cpus.iq.FU_type_0::SimdShaSigma2            0      0.00%     55.21% # Type of FU issued
system.switch_cpus.iq.FU_type_0::SimdShaSigma3            0      0.00%     55.21% # Type of FU issued
system.switch_cpus.iq.FU_type_0::SimdPredAlu            0      0.00%     55.21% # Type of FU issued
system.switch_cpus.iq.FU_type_0::MemRead       360312     28.65%     83.87% # Type of FU issued
system.switch_cpus.iq.FU_type_0::MemWrite       202900     16.13%    100.00% # Type of FU issued
system.switch_cpus.iq.FU_type_0::FloatMemRead            0      0.00%    100.00% # Type of FU issued
system.switch_cpus.iq.FU_type_0::FloatMemWrite            0      0.00%    100.00% # Type of FU issued
system.switch_cpus.iq.FU_type_0::IprAccess            0      0.00%    100.00% # Type of FU issued
system.switch_cpus.iq.FU_type_0::InstPrefetch            0      0.00%    100.00% # Type of FU issued
system.switch_cpus.iq.FU_type_0::total        1257520                       # Type of FU issued
system.switch_cpus.iq.fp_alu_accesses               0                       # Number of floating point alu accesses
system.switch_cpus.iq.fp_inst_queue_reads            0                       # Number of floating instruction queue reads
system.switch_cpus.iq.fp_inst_queue_wakeup_accesses            0                       # Number of floating instruction queue wakeup accesses
system.switch_cpus.iq.fp_inst_queue_writes            0                       # Number of floating instruction queue writes
system.switch_cpus.iq.fu_busy_cnt               17077                       # FU busy when requested
system.switch_cpus.iq.fu_busy_rate           0.013580                       # FU busy rate (busy events/executed inst)
system.switch_cpus.iq.fu_full::No_OpClass            0      0.00%      0.00% # attempts to use FU when none available
system.switch_cpus.iq.fu_full::IntAlu              34      0.20%      0.20% # attempts to use FU when none available
system.switch_cpus.iq.fu_full::IntMult              0      0.00%      0.20% # attempts to use FU when none available
system.switch_cpus.iq.fu_full::IntDiv               0      0.00%      0.20% # attempts to use FU when none available
system.switch_cpus.iq.fu_full::FloatAdd             0      0.00%      0.20% # attempts to use FU when none available
system.switch_cpus.iq.fu_full::FloatCmp             0      0.00%      0.20% # attempts to use FU when none available
system.switch_cpus.iq.fu_full::FloatCvt             0      0.00%      0.20% # attempts to use FU when none available
system.switch_cpus.iq.fu_full::FloatMult            0      0.00%      0.20% # attempts to use FU when none available
system.switch_cpus.iq.fu_full::FloatMultAcc            0      0.00%      0.20% # attempts to use FU when none available
system.switch_cpus.iq.fu_full::FloatDiv             0      0.00%      0.20% # attempts to use FU when none available
system.switch_cpus.iq.fu_full::FloatMisc            0      0.00%      0.20% # attempts to use FU when none available
system.switch_cpus.iq.fu_full::FloatSqrt            0      0.00%      0.20% # attempts to use FU when none available
system.switch_cpus.iq.fu_full::SimdAdd              0      0.00%      0.20% # attempts to use FU when none available
system.switch_cpus.iq.fu_full::SimdAddAcc            0      0.00%      0.20% # attempts to use FU when none available
system.switch_cpus.iq.fu_full::SimdAlu              0      0.00%      0.20% # attempts to use FU when none available
system.switch_cpus.iq.fu_full::SimdCmp              0      0.00%      0.20% # attempts to use FU when none available
system.switch_cpus.iq.fu_full::SimdCvt              0      0.00%      0.20% # attempts to use FU when none available
system.switch_cpus.iq.fu_full::SimdMisc             0      0.00%      0.20% # attempts to use FU when none available
system.switch_cpus.iq.fu_full::SimdMult             0      0.00%      0.20% # attempts to use FU when none available
system.switch_cpus.iq.fu_full::SimdMultAcc            0      0.00%      0.20% # attempts to use FU when none available
system.switch_cpus.iq.fu_full::SimdShift            0      0.00%      0.20% # attempts to use FU when none available
system.switch_cpus.iq.fu_full::SimdShiftAcc            0      0.00%      0.20% # attempts to use FU when none available
system.switch_cpus.iq.fu_full::SimdDiv              0      0.00%      0.20% # attempts to use FU when none available
system.switch_cpus.iq.fu_full::SimdSqrt             0      0.00%      0.20% # attempts to use FU when none available
system.switch_cpus.iq.fu_full::SimdFloatAdd            0      0.00%      0.20% # attempts to use FU when none available
system.switch_cpus.iq.fu_full::SimdFloatAlu            0      0.00%      0.20% # attempts to use FU when none available
system.switch_cpus.iq.fu_full::SimdFloatCmp            0      0.00%      0.20% # attempts to use FU when none available
system.switch_cpus.iq.fu_full::SimdFloatCvt            0      0.00%      0.20% # attempts to use FU when none available
system.switch_cpus.iq.fu_full::SimdFloatDiv            0      0.00%      0.20% # attempts to use FU when none available
system.switch_cpus.iq.fu_full::SimdFloatMisc            0      0.00%      0.20% # attempts to use FU when none available
system.switch_cpus.iq.fu_full::SimdFloatMult            0      0.00%      0.20% # attempts to use FU when none available
system.switch_cpus.iq.fu_full::SimdFloatMultAcc            0      0.00%      0.20% # attempts to use FU when none available
system.switch_cpus.iq.fu_full::SimdFloatSqrt            0      0.00%      0.20% # attempts to use FU when none available
system.switch_cpus.iq.fu_full::SimdReduceAdd            0      0.00%      0.20% # attempts to use FU when none available
system.switch_cpus.iq.fu_full::SimdReduceAlu            0      0.00%      0.20% # attempts to use FU when none available
system.switch_cpus.iq.fu_full::SimdReduceCmp            0      0.00%      0.20% # attempts to use FU when none available
system.switch_cpus.iq.fu_full::SimdFloatReduceAdd            0      0.00%      0.20% # attempts to use FU when none available
system.switch_cpus.iq.fu_full::SimdFloatReduceCmp            0      0.00%      0.20% # attempts to use FU when none available
system.switch_cpus.iq.fu_full::SimdAes              0      0.00%      0.20% # attempts to use FU when none available
system.switch_cpus.iq.fu_full::SimdAesMix            0      0.00%      0.20% # attempts to use FU when none available
system.switch_cpus.iq.fu_full::SimdSha1Hash            0      0.00%      0.20% # attempts to use FU when none available
system.switch_cpus.iq.fu_full::SimdSha1Hash2            0      0.00%      0.20% # attempts to use FU when none available
system.switch_cpus.iq.fu_full::SimdSha256Hash            0      0.00%      0.20% # attempts to use FU when none available
system.switch_cpus.iq.fu_full::SimdSha256Hash2            0      0.00%      0.20% # attempts to use FU when none available
system.switch_cpus.iq.fu_full::SimdShaSigma2            0      0.00%      0.20% # attempts to use FU when none available
system.switch_cpus.iq.fu_full::SimdShaSigma3            0      0.00%      0.20% # attempts to use FU when none available
system.switch_cpus.iq.fu_full::SimdPredAlu            0      0.00%      0.20% # attempts to use FU when none available
system.switch_cpus.iq.fu_full::MemRead          12918     75.65%     75.84% # attempts to use FU when none available
system.switch_cpus.iq.fu_full::MemWrite          4125     24.16%    100.00% # attempts to use FU when none available
system.switch_cpus.iq.fu_full::FloatMemRead            0      0.00%    100.00% # attempts to use FU when none available
system.switch_cpus.iq.fu_full::FloatMemWrite            0      0.00%    100.00% # attempts to use FU when none available
system.switch_cpus.iq.fu_full::IprAccess            0      0.00%    100.00% # attempts to use FU when none available
system.switch_cpus.iq.fu_full::InstPrefetch            0      0.00%    100.00% # attempts to use FU when none available
system.switch_cpus.iq.int_alu_accesses        1274558                       # Number of integer alu accesses
system.switch_cpus.iq.int_inst_queue_reads      3063525                       # Number of integer instruction queue reads
system.switch_cpus.iq.int_inst_queue_wakeup_accesses      1233234                       # Number of integer instruction queue wakeup accesses
system.switch_cpus.iq.int_inst_queue_writes      1535749                       # Number of integer instruction queue writes
system.switch_cpus.iq.iqInstsAdded            1318596                       # Number of instructions added to the IQ (excludes non-spec)
system.switch_cpus.iq.iqInstsIssued           1257520                       # Number of instructions issued
system.switch_cpus.iq.iqSquashedInstsExamined       216982                       # Number of squashed instructions iterated over during squash; mainly for profiling
system.switch_cpus.iq.iqSquashedInstsIssued           87                       # Number of squashed instructions issued
system.switch_cpus.iq.iqSquashedOperandsExamined       135768                       # Number of squashed operands that are examined and possibly removed from graph
system.switch_cpus.iq.issued_per_cycle::samples       531323                       # Number of insts issued each cycle
system.switch_cpus.iq.issued_per_cycle::mean     2.366771                       # Number of insts issued each cycle
system.switch_cpus.iq.issued_per_cycle::stdev     1.819273                       # Number of insts issued each cycle
system.switch_cpus.iq.issued_per_cycle::underflows            0      0.00%      0.00% # Number of insts issued each cycle
system.switch_cpus.iq.issued_per_cycle::0        96707     18.20%     18.20% # Number of insts issued each cycle
system.switch_cpus.iq.issued_per_cycle::1        98245     18.49%     36.69% # Number of insts issued each cycle
system.switch_cpus.iq.issued_per_cycle::2       106476     20.04%     56.73% # Number of insts issued each cycle
system.switch_cpus.iq.issued_per_cycle::3        89074     16.76%     73.50% # Number of insts issued each cycle
system.switch_cpus.iq.issued_per_cycle::4        67356     12.68%     86.17% # Number of insts issued each cycle
system.switch_cpus.iq.issued_per_cycle::5        42989      8.09%     94.26% # Number of insts issued each cycle
system.switch_cpus.iq.issued_per_cycle::6        21124      3.98%     98.24% # Number of insts issued each cycle
system.switch_cpus.iq.issued_per_cycle::7         6828      1.29%     99.52% # Number of insts issued each cycle
system.switch_cpus.iq.issued_per_cycle::8         2524      0.48%    100.00% # Number of insts issued each cycle
system.switch_cpus.iq.issued_per_cycle::overflows            0      0.00%    100.00% # Number of insts issued each cycle
system.switch_cpus.iq.issued_per_cycle::min_value            0                       # Number of insts issued each cycle
system.switch_cpus.iq.issued_per_cycle::max_value            8                       # Number of insts issued each cycle
system.switch_cpus.iq.issued_per_cycle::total       531323                       # Number of insts issued each cycle
system.switch_cpus.iq.rate                   2.343169                       # Inst issue rate
system.switch_cpus.iq.vec_alu_accesses              0                       # Number of vector alu accesses
system.switch_cpus.iq.vec_inst_queue_reads            0                       # Number of vector instruction queue reads
system.switch_cpus.iq.vec_inst_queue_wakeup_accesses            0                       # Number of vector instruction queue wakeup accesses
system.switch_cpus.iq.vec_inst_queue_writes            0                       # Number of vector instruction queue writes
system.switch_cpus.memDep0.conflictingLoads       155900                       # Number of conflicting loads.
system.switch_cpus.memDep0.conflictingStores        48692                       # Number of conflicting stores.
system.switch_cpus.memDep0.insertedLoads       370456                       # Number of loads inserted to the mem dependence unit.
system.switch_cpus.memDep0.insertedStores       220860                       # Number of stores inserted to the mem dependence unit.
system.switch_cpus.misc_regfile_reads         2735565                       # number of misc regfile reads
system.switch_cpus.misc_regfile_writes              1                       # number of misc regfile writes
system.switch_cpus.numCycles                   536675                       # number of cpu cycles simulated
system.switch_cpus.numWorkItemsCompleted            0                       # number of work items this cpu completed
system.switch_cpus.numWorkItemsStarted              0                       # number of work items this cpu started
system.switch_cpus.timesIdled                      34                       # Number of times that the entire CPU went into an idle state and unscheduled itself
system.switch_cpus.vec_regfile_writes              44                       # number of vector regfile writes
system.tol2bus.snoop_filter.hit_multi_requests            0                       # Number of requests hitting in the snoop filter with multiple (>1) holders of the requested data.
system.tol2bus.snoop_filter.hit_multi_snoops            0                       # Number of snoops hitting in the snoop filter with multiple (>1) holders of the requested data.
system.tol2bus.snoop_filter.hit_single_requests            0                       # Number of requests hitting in the snoop filter with a single holder of the requested data.
system.tol2bus.snoop_filter.hit_single_snoops            0                       # Number of snoops hitting in the snoop filter with a single holder of the requested data.
system.tol2bus.snoop_filter.tot_requests          168                       # Total number of requests made to the snoop filter.
system.tol2bus.snoop_filter.tot_snoops              0                       # Total number of snoops made to the snoop filter.
system.clk_domain.clock                          1000                       # Clock period in ticks
system.cpu.dcache.demand_hits::.cpu.data            6                       # number of demand (read+write) hits
system.cpu.dcache.demand_hits::.switch_cpus.data       363675                       # number of demand (read+write) hits
system.cpu.dcache.demand_hits::total           363681                       # number of demand (read+write) hits
system.cpu.dcache.overall_hits::.cpu.data            6                       # number of overall hits
system.cpu.dcache.overall_hits::.switch_cpus.data       363675                       # number of overall hits
system.cpu.dcache.overall_hits::total          363681                       # number of overall hits
system.cpu.dcache.demand_misses::.cpu.data            1                       # number of demand (read+write) misses
system.cpu.dcache.demand_misses::.switch_cpus.data          360                       # number of demand (read+write) misses
system.cpu.dcache.demand_misses::total            361                       # number of demand (read+write) misses
system.cpu.dcache.overall_misses::.cpu.data            1                       # number of overall misses
system.cpu.dcache.overall_misses::.switch_cpus.data          360                       # number of overall misses
system.cpu.dcache.overall_misses::total           361                       # number of overall misses
system.cpu.dcache.demand_miss_latency::.switch_cpus.data     25054141                       # number of demand (read+write) miss cycles
system.cpu.dcache.demand_miss_latency::total     25054141                       # number of demand (read+write) miss cycles
system.cpu.dcache.overall_miss_latency::.switch_cpus.data     25054141                       # number of overall miss cycles
system.cpu.dcache.overall_miss_latency::total     25054141                       # number of overall miss cycles
system.cpu.dcache.demand_accesses::.cpu.data            7                       # number of demand (read+write) accesses
system.cpu.dcache.demand_accesses::.switch_cpus.data       364035                       # number of demand (read+write) accesses
system.cpu.dcache.demand_accesses::total       364042                       # number of demand (read+write) accesses
system.cpu.dcache.overall_accesses::.cpu.data            7                       # number of overall (read+write) accesses
system.cpu.dcache.overall_accesses::.switch_cpus.data       364035                       # number of overall (read+write) accesses
system.cpu.dcache.overall_accesses::total       364042                       # number of overall (read+write) accesses
system.cpu.dcache.demand_miss_rate::.cpu.data     0.142857                       # miss rate for demand accesses
system.cpu.dcache.demand_miss_rate::.switch_cpus.data     0.000989                       # miss rate for demand accesses
system.cpu.dcache.demand_miss_rate::total     0.000992                       # miss rate for demand accesses
system.cpu.dcache.overall_miss_rate::.cpu.data     0.142857                       # miss rate for overall accesses
system.cpu.dcache.overall_miss_rate::.switch_cpus.data     0.000989                       # miss rate for overall accesses
system.cpu.dcache.overall_miss_rate::total     0.000992                       # miss rate for overall accesses
system.cpu.dcache.demand_avg_miss_latency::.switch_cpus.data 69594.836111                       # average overall miss latency
system.cpu.dcache.demand_avg_miss_latency::total 69402.052632                       # average overall miss latency
system.cpu.dcache.overall_avg_miss_latency::.switch_cpus.data 69594.836111                       # average overall miss latency
system.cpu.dcache.overall_avg_miss_latency::total 69402.052632                       # average overall miss latency
system.cpu.dcache.blocked_cycles::no_mshrs            0                       # number of cycles access was blocked
system.cpu.dcache.blocked_cycles::no_targets            0                       # number of cycles access was blocked
system.cpu.dcache.blocked::no_mshrs                 0                       # number of cycles access was blocked
system.cpu.dcache.blocked::no_targets               0                       # number of cycles access was blocked
system.cpu.dcache.avg_blocked_cycles::no_mshrs          nan                       # average number of cycles each access was blocked
system.cpu.dcache.avg_blocked_cycles::no_targets          nan                       # average number of cycles each access was blocked
system.cpu.dcache.demand_mshr_hits::.switch_cpus.data          237                       # number of demand (read+write) MSHR hits
system.cpu.dcache.demand_mshr_hits::total          237                       # number of demand (read+write) MSHR hits
system.cpu.dcache.overall_mshr_hits::.switch_cpus.data          237                       # number of overall MSHR hits
system.cpu.dcache.overall_mshr_hits::total          237                       # number of overall MSHR hits
system.cpu.dcache.demand_mshr_misses::.switch_cpus.data          123                       # number of demand (read+write) MSHR misses
system.cpu.dcache.demand_mshr_misses::total          123                       # number of demand (read+write) MSHR misses
system.cpu.dcache.overall_mshr_misses::.switch_cpus.data          123                       # number of overall MSHR misses
system.cpu.dcache.overall_mshr_misses::total          123                       # number of overall MSHR misses
system.cpu.dcache.demand_mshr_miss_latency::.switch_cpus.data      7990697                       # number of demand (read+write) MSHR miss cycles
system.cpu.dcache.demand_mshr_miss_latency::total      7990697                       # number of demand (read+write) MSHR miss cycles
system.cpu.dcache.overall_mshr_miss_latency::.switch_cpus.data      7990697                       # number of overall MSHR miss cycles
system.cpu.dcache.overall_mshr_miss_latency::total      7990697                       # number of overall MSHR miss cycles
system.cpu.dcache.demand_mshr_miss_rate::.switch_cpus.data     0.000338                       # mshr miss rate for demand accesses
system.cpu.dcache.demand_mshr_miss_rate::total     0.000338                       # mshr miss rate for demand accesses
system.cpu.dcache.overall_mshr_miss_rate::.switch_cpus.data     0.000338                       # mshr miss rate for overall accesses
system.cpu.dcache.overall_mshr_miss_rate::total     0.000338                       # mshr miss rate for overall accesses
system.cpu.dcache.demand_avg_mshr_miss_latency::.switch_cpus.data 64965.016260                       # average overall mshr miss latency
system.cpu.dcache.demand_avg_mshr_miss_latency::total 64965.016260                       # average overall mshr miss latency
system.cpu.dcache.overall_avg_mshr_miss_latency::.switch_cpus.data 64965.016260                       # average overall mshr miss latency
system.cpu.dcache.overall_avg_mshr_miss_latency::total 64965.016260                       # average overall mshr miss latency
system.cpu.dcache.replacements                      0                       # number of replacements
system.cpu.dcache.ReadReq_hits::.cpu.data            6                       # number of ReadReq hits
system.cpu.dcache.ReadReq_hits::.switch_cpus.data       187797                       # number of ReadReq hits
system.cpu.dcache.ReadReq_hits::total          187803                       # number of ReadReq hits
system.cpu.dcache.ReadReq_misses::.cpu.data            1                       # number of ReadReq misses
system.cpu.dcache.ReadReq_misses::.switch_cpus.data          317                       # number of ReadReq misses
system.cpu.dcache.ReadReq_misses::total           318                       # number of ReadReq misses
system.cpu.dcache.ReadReq_miss_latency::.switch_cpus.data     22553475                       # number of ReadReq miss cycles
system.cpu.dcache.ReadReq_miss_latency::total     22553475                       # number of ReadReq miss cycles
system.cpu.dcache.ReadReq_accesses::.cpu.data            7                       # number of ReadReq accesses(hits+misses)
system.cpu.dcache.ReadReq_accesses::.switch_cpus.data       188114                       # number of ReadReq accesses(hits+misses)
system.cpu.dcache.ReadReq_accesses::total       188121                       # number of ReadReq accesses(hits+misses)
system.cpu.dcache.ReadReq_miss_rate::.cpu.data     0.142857                       # miss rate for ReadReq accesses
system.cpu.dcache.ReadReq_miss_rate::.switch_cpus.data     0.001685                       # miss rate for ReadReq accesses
system.cpu.dcache.ReadReq_miss_rate::total     0.001690                       # miss rate for ReadReq accesses
system.cpu.dcache.ReadReq_avg_miss_latency::.switch_cpus.data 71146.608833                       # average ReadReq miss latency
system.cpu.dcache.ReadReq_avg_miss_latency::total 70922.877358                       # average ReadReq miss latency
system.cpu.dcache.ReadReq_mshr_hits::.switch_cpus.data          216                       # number of ReadReq MSHR hits
system.cpu.dcache.ReadReq_mshr_hits::total          216                       # number of ReadReq MSHR hits
system.cpu.dcache.ReadReq_mshr_misses::.switch_cpus.data          101                       # number of ReadReq MSHR misses
system.cpu.dcache.ReadReq_mshr_misses::total          101                       # number of ReadReq MSHR misses
system.cpu.dcache.ReadReq_mshr_miss_latency::.switch_cpus.data      6715493                       # number of ReadReq MSHR miss cycles
system.cpu.dcache.ReadReq_mshr_miss_latency::total      6715493                       # number of ReadReq MSHR miss cycles
system.cpu.dcache.ReadReq_mshr_miss_rate::.switch_cpus.data     0.000537                       # mshr miss rate for ReadReq accesses
system.cpu.dcache.ReadReq_mshr_miss_rate::total     0.000537                       # mshr miss rate for ReadReq accesses
system.cpu.dcache.ReadReq_avg_mshr_miss_latency::.switch_cpus.data 66490.029703                       # average ReadReq mshr miss latency
system.cpu.dcache.ReadReq_avg_mshr_miss_latency::total 66490.029703                       # average ReadReq mshr miss latency
system.cpu.dcache.WriteReq_hits::.switch_cpus.data       175878                       # number of WriteReq hits
system.cpu.dcache.WriteReq_hits::total         175878                       # number of WriteReq hits
system.cpu.dcache.WriteReq_misses::.switch_cpus.data           43                       # number of WriteReq misses
system.cpu.dcache.WriteReq_misses::total           43                       # number of WriteReq misses
system.cpu.dcache.WriteReq_miss_latency::.switch_cpus.data      2500666                       # number of WriteReq miss cycles
system.cpu.dcache.WriteReq_miss_latency::total      2500666                       # number of WriteReq miss cycles
system.cpu.dcache.WriteReq_accesses::.switch_cpus.data       175921                       # number of WriteReq accesses(hits+misses)
system.cpu.dcache.WriteReq_accesses::total       175921                       # number of WriteReq accesses(hits+misses)
system.cpu.dcache.WriteReq_miss_rate::.switch_cpus.data     0.000244                       # miss rate for WriteReq accesses
system.cpu.dcache.WriteReq_miss_rate::total     0.000244                       # miss rate for WriteReq accesses
system.cpu.dcache.WriteReq_avg_miss_latency::.switch_cpus.data 58155.023256                       # average WriteReq miss latency
system.cpu.dcache.WriteReq_avg_miss_latency::total 58155.023256                       # average WriteReq miss latency
system.cpu.dcache.WriteReq_mshr_hits::.switch_cpus.data           21                       # number of WriteReq MSHR hits
system.cpu.dcache.WriteReq_mshr_hits::total           21                       # number of WriteReq MSHR hits
system.cpu.dcache.WriteReq_mshr_misses::.switch_cpus.data           22                       # number of WriteReq MSHR misses
system.cpu.dcache.WriteReq_mshr_misses::total           22                       # number of WriteReq MSHR misses
system.cpu.dcache.WriteReq_mshr_miss_latency::.switch_cpus.data      1275204                       # number of WriteReq MSHR miss cycles
system.cpu.dcache.WriteReq_mshr_miss_latency::total      1275204                       # number of WriteReq MSHR miss cycles
system.cpu.dcache.WriteReq_mshr_miss_rate::.switch_cpus.data     0.000125                       # mshr miss rate for WriteReq accesses
system.cpu.dcache.WriteReq_mshr_miss_rate::total     0.000125                       # mshr miss rate for WriteReq accesses
system.cpu.dcache.WriteReq_avg_mshr_miss_latency::.switch_cpus.data 57963.818182                       # average WriteReq mshr miss latency
system.cpu.dcache.WriteReq_avg_mshr_miss_latency::total 57963.818182                       # average WriteReq mshr miss latency
system.cpu.dcache.power_state.pwrStateResidencyTicks::UNDEFINED 207247056865                       # Cumulative time (in ticks) in various power states
system.cpu.dcache.tags.tagsinuse            65.770190                       # Cycle average of tags in use
system.cpu.dcache.tags.total_refs                   0                       # Total number of references to valid blocks.
system.cpu.dcache.tags.sampled_refs                 0                       # Sample count of references to valid blocks.
system.cpu.dcache.tags.avg_refs                   nan                       # Average number of references to valid blocks.
system.cpu.dcache.tags.warmup_cycle      207073701150                       # Cycle when the warmup percentage was hit.
system.cpu.dcache.tags.occ_blocks::.cpu.data     0.999998                       # Average occupied blocks per requestor
system.cpu.dcache.tags.occ_blocks::.switch_cpus.data    64.770192                       # Average occupied blocks per requestor
system.cpu.dcache.tags.occ_percent::.cpu.data     0.003906                       # Average percentage of cache occupancy
system.cpu.dcache.tags.occ_percent::.switch_cpus.data     0.253009                       # Average percentage of cache occupancy
system.cpu.dcache.tags.occ_percent::total     0.256915                       # Average percentage of cache occupancy
system.cpu.dcache.tags.occ_task_id_blocks::1024          124                       # Occupied blocks per task id
system.cpu.dcache.tags.age_task_id_blocks_1024::0            7                       # Occupied blocks per task id
system.cpu.dcache.tags.age_task_id_blocks_1024::1           60                       # Occupied blocks per task id
system.cpu.dcache.tags.age_task_id_blocks_1024::2           57                       # Occupied blocks per task id
system.cpu.dcache.tags.occ_task_id_percent::1024     0.484375                       # Percentage of cache occupancy per task id
system.cpu.dcache.tags.tag_accesses           2912460                       # Number of tag accesses
system.cpu.dcache.tags.data_accesses          2912460                       # Number of data accesses
system.cpu.dcache.tags.power_state.pwrStateResidencyTicks::UNDEFINED 207247056865                       # Cumulative time (in ticks) in various power states
system.cpu.dtb.instHits                             0                       # ITB inst hits
system.cpu.dtb.instMisses                           0                       # ITB inst misses
system.cpu.dtb.readHits                             0                       # DTB read hits
system.cpu.dtb.readMisses                           0                       # DTB read misses
system.cpu.dtb.writeHits                            0                       # DTB write hits
system.cpu.dtb.writeMisses                          0                       # DTB write misses
system.cpu.dtb.inserts                              0                       # Number of times an entry is inserted into the TLB
system.cpu.dtb.flushTlb                             2                       # Number of times complete TLB was flushed
system.cpu.dtb.flushTlbMva                          0                       # Number of times TLB was flushed by MVA
system.cpu.dtb.flushTlbMvaAsid                      0                       # Number of times TLB was flushed by MVA & ASID
system.cpu.dtb.flushTlbAsid                         0                       # Number of times TLB was flushed by ASID
system.cpu.dtb.flushedEntries                       0                       # Number of entries that have been flushed from TLB
system.cpu.dtb.alignFaults                          0                       # Number of TLB faults due to alignment restrictions
system.cpu.dtb.prefetchFaults                       0                       # Number of TLB faults due to prefetch
system.cpu.dtb.domainFaults                         0                       # Number of TLB faults due to domain restrictions
system.cpu.dtb.permsFaults                          0                       # Number of TLB faults due to permissions restrictions
system.cpu.dtb.readAccesses                         0                       # DTB read accesses
system.cpu.dtb.writeAccesses                        0                       # DTB write accesses
system.cpu.dtb.instAccesses                         0                       # ITB inst accesses
system.cpu.dtb.hits                                 0                       # Total TLB (inst and data) hits
system.cpu.dtb.misses                               0                       # Total TLB (inst and data) misses
system.cpu.dtb.accesses                             0                       # Total TLB (inst and data) accesses
system.cpu.dtb.stage2_mmu.stage2_tlb.instHits            0                       # ITB inst hits
system.cpu.dtb.stage2_mmu.stage2_tlb.instMisses            0                       # ITB inst misses
system.cpu.dtb.stage2_mmu.stage2_tlb.readHits            0                       # DTB read hits
system.cpu.dtb.stage2_mmu.stage2_tlb.readMisses            0                       # DTB read misses
system.cpu.dtb.stage2_mmu.stage2_tlb.writeHits            0                       # DTB write hits
system.cpu.dtb.stage2_mmu.stage2_tlb.writeMisses            0                       # DTB write misses
system.cpu.dtb.stage2_mmu.stage2_tlb.inserts            0                       # Number of times an entry is inserted into the TLB
system.cpu.dtb.stage2_mmu.stage2_tlb.flushTlb            0                       # Number of times complete TLB was flushed
system.cpu.dtb.stage2_mmu.stage2_tlb.flushTlbMva            0                       # Number of times TLB was flushed by MVA
system.cpu.dtb.stage2_mmu.stage2_tlb.flushTlbMvaAsid            0                       # Number of times TLB was flushed by MVA & ASID
system.cpu.dtb.stage2_mmu.stage2_tlb.flushTlbAsid            0                       # Number of times TLB was flushed by ASID
system.cpu.dtb.stage2_mmu.stage2_tlb.flushedEntries            0                       # Number of entries that have been flushed from TLB
system.cpu.dtb.stage2_mmu.stage2_tlb.alignFaults            0                       # Number of TLB faults due to alignment restrictions
system.cpu.dtb.stage2_mmu.stage2_tlb.prefetchFaults            0                       # Number of TLB faults due to prefetch
system.cpu.dtb.stage2_mmu.stage2_tlb.domainFaults            0                       # Number of TLB faults due to domain restrictions
system.cpu.dtb.stage2_mmu.stage2_tlb.permsFaults            0                       # Number of TLB faults due to permissions restrictions
system.cpu.dtb.stage2_mmu.stage2_tlb.readAccesses            0                       # DTB read accesses
system.cpu.dtb.stage2_mmu.stage2_tlb.writeAccesses            0                       # DTB write accesses
system.cpu.dtb.stage2_mmu.stage2_tlb.instAccesses            0                       # ITB inst accesses
system.cpu.dtb.stage2_mmu.stage2_tlb.hits            0                       # Total TLB (inst and data) hits
system.cpu.dtb.stage2_mmu.stage2_tlb.misses            0                       # Total TLB (inst and data) misses
system.cpu.dtb.stage2_mmu.stage2_tlb.accesses            0                       # Total TLB (inst and data) accesses
system.cpu.dtb.stage2_mmu.stage2_tlb.walker.walks            0                       # Table walker walks requested
system.cpu.dtb.stage2_mmu.stage2_tlb.walker.requestOrigin_Requested::Data            0                       # Table walker requests started/completed, data/inst
system.cpu.dtb.stage2_mmu.stage2_tlb.walker.requestOrigin_Requested::Inst            0                       # Table walker requests started/completed, data/inst
system.cpu.dtb.stage2_mmu.stage2_tlb.walker.requestOrigin_Requested::total            0                       # Table walker requests started/completed, data/inst
system.cpu.dtb.stage2_mmu.stage2_tlb.walker.requestOrigin_Completed::Data            0                       # Table walker requests started/completed, data/inst
system.cpu.dtb.stage2_mmu.stage2_tlb.walker.requestOrigin_Completed::Inst            0                       # Table walker requests started/completed, data/inst
system.cpu.dtb.stage2_mmu.stage2_tlb.walker.requestOrigin_Completed::total            0                       # Table walker requests started/completed, data/inst
system.cpu.dtb.stage2_mmu.stage2_tlb.walker.requestOrigin::total            0                       # Table walker requests started/completed, data/inst
system.cpu.dtb.stage2_mmu.stage2_tlb.walker.power_state.pwrStateResidencyTicks::UNDEFINED 207247056865                       # Cumulative time (in ticks) in various power states
system.cpu.dtb.walker.walks                         0                       # Table walker walks requested
system.cpu.dtb.walker.requestOrigin_Requested::Data            0                       # Table walker requests started/completed, data/inst
system.cpu.dtb.walker.requestOrigin_Requested::Inst            0                       # Table walker requests started/completed, data/inst
system.cpu.dtb.walker.requestOrigin_Requested::total            0                       # Table walker requests started/completed, data/inst
system.cpu.dtb.walker.requestOrigin_Completed::Data            0                       # Table walker requests started/completed, data/inst
system.cpu.dtb.walker.requestOrigin_Completed::Inst            0                       # Table walker requests started/completed, data/inst
system.cpu.dtb.walker.requestOrigin_Completed::total            0                       # Table walker requests started/completed, data/inst
system.cpu.dtb.walker.requestOrigin::total            0                       # Table walker requests started/completed, data/inst
system.cpu.dtb.walker.power_state.pwrStateResidencyTicks::UNDEFINED 207247056865                       # Cumulative time (in ticks) in various power states
system.cpu.icache.demand_hits::.cpu.inst           27                       # number of demand (read+write) hits
system.cpu.icache.demand_hits::.switch_cpus.inst       182099                       # number of demand (read+write) hits
system.cpu.icache.demand_hits::total           182126                       # number of demand (read+write) hits
system.cpu.icache.overall_hits::.cpu.inst           27                       # number of overall hits
system.cpu.icache.overall_hits::.switch_cpus.inst       182099                       # number of overall hits
system.cpu.icache.overall_hits::total          182126                       # number of overall hits
system.cpu.icache.demand_misses::.cpu.inst            3                       # number of demand (read+write) misses
system.cpu.icache.demand_misses::.switch_cpus.inst           86                       # number of demand (read+write) misses
system.cpu.icache.demand_misses::total             89                       # number of demand (read+write) misses
system.cpu.icache.overall_misses::.cpu.inst            3                       # number of overall misses
system.cpu.icache.overall_misses::.switch_cpus.inst           86                       # number of overall misses
system.cpu.icache.overall_misses::total            89                       # number of overall misses
system.cpu.icache.demand_miss_latency::.switch_cpus.inst      5376012                       # number of demand (read+write) miss cycles
system.cpu.icache.demand_miss_latency::total      5376012                       # number of demand (read+write) miss cycles
system.cpu.icache.overall_miss_latency::.switch_cpus.inst      5376012                       # number of overall miss cycles
system.cpu.icache.overall_miss_latency::total      5376012                       # number of overall miss cycles
system.cpu.icache.demand_accesses::.cpu.inst           30                       # number of demand (read+write) accesses
system.cpu.icache.demand_accesses::.switch_cpus.inst       182185                       # number of demand (read+write) accesses
system.cpu.icache.demand_accesses::total       182215                       # number of demand (read+write) accesses
system.cpu.icache.overall_accesses::.cpu.inst           30                       # number of overall (read+write) accesses
system.cpu.icache.overall_accesses::.switch_cpus.inst       182185                       # number of overall (read+write) accesses
system.cpu.icache.overall_accesses::total       182215                       # number of overall (read+write) accesses
system.cpu.icache.demand_miss_rate::.cpu.inst     0.100000                       # miss rate for demand accesses
system.cpu.icache.demand_miss_rate::.switch_cpus.inst     0.000472                       # miss rate for demand accesses
system.cpu.icache.demand_miss_rate::total     0.000488                       # miss rate for demand accesses
system.cpu.icache.overall_miss_rate::.cpu.inst     0.100000                       # miss rate for overall accesses
system.cpu.icache.overall_miss_rate::.switch_cpus.inst     0.000472                       # miss rate for overall accesses
system.cpu.icache.overall_miss_rate::total     0.000488                       # miss rate for overall accesses
system.cpu.icache.demand_avg_miss_latency::.switch_cpus.inst 62511.767442                       # average overall miss latency
system.cpu.icache.demand_avg_miss_latency::total 60404.629213                       # average overall miss latency
system.cpu.icache.overall_avg_miss_latency::.switch_cpus.inst 62511.767442                       # average overall miss latency
system.cpu.icache.overall_avg_miss_latency::total 60404.629213                       # average overall miss latency
system.cpu.icache.blocked_cycles::no_mshrs            0                       # number of cycles access was blocked
system.cpu.icache.blocked_cycles::no_targets            0                       # number of cycles access was blocked
system.cpu.icache.blocked::no_mshrs                 0                       # number of cycles access was blocked
system.cpu.icache.blocked::no_targets               0                       # number of cycles access was blocked
system.cpu.icache.avg_blocked_cycles::no_mshrs          nan                       # average number of cycles each access was blocked
system.cpu.icache.avg_blocked_cycles::no_targets          nan                       # average number of cycles each access was blocked
system.cpu.icache.demand_mshr_hits::.switch_cpus.inst           45                       # number of demand (read+write) MSHR hits
system.cpu.icache.demand_mshr_hits::total           45                       # number of demand (read+write) MSHR hits
system.cpu.icache.overall_mshr_hits::.switch_cpus.inst           45                       # number of overall MSHR hits
system.cpu.icache.overall_mshr_hits::total           45                       # number of overall MSHR hits
system.cpu.icache.demand_mshr_misses::.switch_cpus.inst           41                       # number of demand (read+write) MSHR misses
system.cpu.icache.demand_mshr_misses::total           41                       # number of demand (read+write) MSHR misses
system.cpu.icache.overall_mshr_misses::.switch_cpus.inst           41                       # number of overall MSHR misses
system.cpu.icache.overall_mshr_misses::total           41                       # number of overall MSHR misses
system.cpu.icache.demand_mshr_miss_latency::.switch_cpus.inst      2934455                       # number of demand (read+write) MSHR miss cycles
system.cpu.icache.demand_mshr_miss_latency::total      2934455                       # number of demand (read+write) MSHR miss cycles
system.cpu.icache.overall_mshr_miss_latency::.switch_cpus.inst      2934455                       # number of overall MSHR miss cycles
system.cpu.icache.overall_mshr_miss_latency::total      2934455                       # number of overall MSHR miss cycles
system.cpu.icache.demand_mshr_miss_rate::.switch_cpus.inst     0.000225                       # mshr miss rate for demand accesses
system.cpu.icache.demand_mshr_miss_rate::total     0.000225                       # mshr miss rate for demand accesses
system.cpu.icache.overall_mshr_miss_rate::.switch_cpus.inst     0.000225                       # mshr miss rate for overall accesses
system.cpu.icache.overall_mshr_miss_rate::total     0.000225                       # mshr miss rate for overall accesses
system.cpu.icache.demand_avg_mshr_miss_latency::.switch_cpus.inst 71572.073171                       # average overall mshr miss latency
system.cpu.icache.demand_avg_mshr_miss_latency::total 71572.073171                       # average overall mshr miss latency
system.cpu.icache.overall_avg_mshr_miss_latency::.switch_cpus.inst 71572.073171                       # average overall mshr miss latency
system.cpu.icache.overall_avg_mshr_miss_latency::total 71572.073171                       # average overall mshr miss latency
system.cpu.icache.replacements                      0                       # number of replacements
system.cpu.icache.ReadReq_hits::.cpu.inst           27                       # number of ReadReq hits
system.cpu.icache.ReadReq_hits::.switch_cpus.inst       182099                       # number of ReadReq hits
system.cpu.icache.ReadReq_hits::total          182126                       # number of ReadReq hits
system.cpu.icache.ReadReq_misses::.cpu.inst            3                       # number of ReadReq misses
system.cpu.icache.ReadReq_misses::.switch_cpus.inst           86                       # number of ReadReq misses
system.cpu.icache.ReadReq_misses::total            89                       # number of ReadReq misses
system.cpu.icache.ReadReq_miss_latency::.switch_cpus.inst      5376012                       # number of ReadReq miss cycles
system.cpu.icache.ReadReq_miss_latency::total      5376012                       # number of ReadReq miss cycles
system.cpu.icache.ReadReq_accesses::.cpu.inst           30                       # number of ReadReq accesses(hits+misses)
system.cpu.icache.ReadReq_accesses::.switch_cpus.inst       182185                       # number of ReadReq accesses(hits+misses)
system.cpu.icache.ReadReq_accesses::total       182215                       # number of ReadReq accesses(hits+misses)
system.cpu.icache.ReadReq_miss_rate::.cpu.inst     0.100000                       # miss rate for ReadReq accesses
system.cpu.icache.ReadReq_miss_rate::.switch_cpus.inst     0.000472                       # miss rate for ReadReq accesses
system.cpu.icache.ReadReq_miss_rate::total     0.000488                       # miss rate for ReadReq accesses
system.cpu.icache.ReadReq_avg_miss_latency::.switch_cpus.inst 62511.767442                       # average ReadReq miss latency
system.cpu.icache.ReadReq_avg_miss_latency::total 60404.629213                       # average ReadReq miss latency
system.cpu.icache.ReadReq_mshr_hits::.switch_cpus.inst           45                       # number of ReadReq MSHR hits
system.cpu.icache.ReadReq_mshr_hits::total           45                       # number of ReadReq MSHR hits
system.cpu.icache.ReadReq_mshr_misses::.switch_cpus.inst           41                       # number of ReadReq MSHR misses
system.cpu.icache.ReadReq_mshr_misses::total           41                       # number of ReadReq MSHR misses
system.cpu.icache.ReadReq_mshr_miss_latency::.switch_cpus.inst      2934455                       # number of ReadReq MSHR miss cycles
system.cpu.icache.ReadReq_mshr_miss_latency::total      2934455                       # number of ReadReq MSHR miss cycles
system.cpu.icache.ReadReq_mshr_miss_rate::.switch_cpus.inst     0.000225                       # mshr miss rate for ReadReq accesses
system.cpu.icache.ReadReq_mshr_miss_rate::total     0.000225                       # mshr miss rate for ReadReq accesses
system.cpu.icache.ReadReq_avg_mshr_miss_latency::.switch_cpus.inst 71572.073171                       # average ReadReq mshr miss latency
system.cpu.icache.ReadReq_avg_mshr_miss_latency::total 71572.073171                       # average ReadReq mshr miss latency
system.cpu.icache.power_state.pwrStateResidencyTicks::UNDEFINED 207247056865                       # Cumulative time (in ticks) in various power states
system.cpu.icache.tags.tagsinuse            43.637640                       # Cycle average of tags in use
system.cpu.icache.tags.total_refs                   0                       # Total number of references to valid blocks.
system.cpu.icache.tags.sampled_refs                 0                       # Sample count of references to valid blocks.
system.cpu.icache.tags.avg_refs                   nan                       # Average number of references to valid blocks.
system.cpu.icache.tags.warmup_cycle      207073701150                       # Cycle when the warmup percentage was hit.
system.cpu.icache.tags.occ_blocks::.cpu.inst     2.999953                       # Average occupied blocks per requestor
system.cpu.icache.tags.occ_blocks::.switch_cpus.inst    40.637687                       # Average occupied blocks per requestor
system.cpu.icache.tags.occ_percent::.cpu.inst     0.005859                       # Average percentage of cache occupancy
system.cpu.icache.tags.occ_percent::.switch_cpus.inst     0.079370                       # Average percentage of cache occupancy
system.cpu.icache.tags.occ_percent::total     0.085230                       # Average percentage of cache occupancy
system.cpu.icache.tags.occ_task_id_blocks::1024           44                       # Occupied blocks per task id
system.cpu.icache.tags.age_task_id_blocks_1024::2           44                       # Occupied blocks per task id
system.cpu.icache.tags.occ_task_id_percent::1024     0.085938                       # Percentage of cache occupancy per task id
system.cpu.icache.tags.tag_accesses           1457764                       # Number of tag accesses
system.cpu.icache.tags.data_accesses          1457764                       # Number of data accesses
system.cpu.icache.tags.power_state.pwrStateResidencyTicks::UNDEFINED 207247056865                       # Cumulative time (in ticks) in various power states
system.cpu.itb.instHits                             0                       # ITB inst hits
system.cpu.itb.instMisses                           0                       # ITB inst misses
system.cpu.itb.readHits                             0                       # DTB read hits
system.cpu.itb.readMisses                           0                       # DTB read misses
system.cpu.itb.writeHits                            0                       # DTB write hits
system.cpu.itb.writeMisses                          0                       # DTB write misses
system.cpu.itb.inserts                              0                       # Number of times an entry is inserted into the TLB
system.cpu.itb.flushTlb                             2                       # Number of times complete TLB was flushed
system.cpu.itb.flushTlbMva                          0                       # Number of times TLB was flushed by MVA
system.cpu.itb.flushTlbMvaAsid                      0                       # Number of times TLB was flushed by MVA & ASID
system.cpu.itb.flushTlbAsid                         0                       # Number of times TLB was flushed by ASID
system.cpu.itb.flushedEntries                       0                       # Number of entries that have been flushed from TLB
system.cpu.itb.alignFaults                          0                       # Number of TLB faults due to alignment restrictions
system.cpu.itb.prefetchFaults                       0                       # Number of TLB faults due to prefetch
system.cpu.itb.domainFaults                         0                       # Number of TLB faults due to domain restrictions
system.cpu.itb.permsFaults                          0                       # Number of TLB faults due to permissions restrictions
system.cpu.itb.readAccesses                         0                       # DTB read accesses
system.cpu.itb.writeAccesses                        0                       # DTB write accesses
system.cpu.itb.instAccesses                         0                       # ITB inst accesses
system.cpu.itb.hits                                 0                       # Total TLB (inst and data) hits
system.cpu.itb.misses                               0                       # Total TLB (inst and data) misses
system.cpu.itb.accesses                             0                       # Total TLB (inst and data) accesses
system.cpu.itb.stage2_mmu.stage2_tlb.instHits            0                       # ITB inst hits
system.cpu.itb.stage2_mmu.stage2_tlb.instMisses            0                       # ITB inst misses
system.cpu.itb.stage2_mmu.stage2_tlb.readHits            0                       # DTB read hits
system.cpu.itb.stage2_mmu.stage2_tlb.readMisses            0                       # DTB read misses
system.cpu.itb.stage2_mmu.stage2_tlb.writeHits            0                       # DTB write hits
system.cpu.itb.stage2_mmu.stage2_tlb.writeMisses            0                       # DTB write misses
system.cpu.itb.stage2_mmu.stage2_tlb.inserts            0                       # Number of times an entry is inserted into the TLB
system.cpu.itb.stage2_mmu.stage2_tlb.flushTlb            0                       # Number of times complete TLB was flushed
system.cpu.itb.stage2_mmu.stage2_tlb.flushTlbMva            0                       # Number of times TLB was flushed by MVA
system.cpu.itb.stage2_mmu.stage2_tlb.flushTlbMvaAsid            0                       # Number of times TLB was flushed by MVA & ASID
system.cpu.itb.stage2_mmu.stage2_tlb.flushTlbAsid            0                       # Number of times TLB was flushed by ASID
system.cpu.itb.stage2_mmu.stage2_tlb.flushedEntries            0                       # Number of entries that have been flushed from TLB
system.cpu.itb.stage2_mmu.stage2_tlb.alignFaults            0                       # Number of TLB faults due to alignment restrictions
system.cpu.itb.stage2_mmu.stage2_tlb.prefetchFaults            0                       # Number of TLB faults due to prefetch
system.cpu.itb.stage2_mmu.stage2_tlb.domainFaults            0                       # Number of TLB faults due to domain restrictions
system.cpu.itb.stage2_mmu.stage2_tlb.permsFaults            0                       # Number of TLB faults due to permissions restrictions
system.cpu.itb.stage2_mmu.stage2_tlb.readAccesses            0                       # DTB read accesses
system.cpu.itb.stage2_mmu.stage2_tlb.writeAccesses            0                       # DTB write accesses
system.cpu.itb.stage2_mmu.stage2_tlb.instAccesses            0                       # ITB inst accesses
system.cpu.itb.stage2_mmu.stage2_tlb.hits            0                       # Total TLB (inst and data) hits
system.cpu.itb.stage2_mmu.stage2_tlb.misses            0                       # Total TLB (inst and data) misses
system.cpu.itb.stage2_mmu.stage2_tlb.accesses            0                       # Total TLB (inst and data) accesses
system.cpu.itb.stage2_mmu.stage2_tlb.walker.walks            0                       # Table walker walks requested
system.cpu.itb.stage2_mmu.stage2_tlb.walker.requestOrigin_Requested::Data            0                       # Table walker requests started/completed, data/inst
system.cpu.itb.stage2_mmu.stage2_tlb.walker.requestOrigin_Requested::Inst            0                       # Table walker requests started/completed, data/inst
system.cpu.itb.stage2_mmu.stage2_tlb.walker.requestOrigin_Requested::total            0                       # Table walker requests started/completed, data/inst
system.cpu.itb.stage2_mmu.stage2_tlb.walker.requestOrigin_Completed::Data            0                       # Table walker requests started/completed, data/inst
system.cpu.itb.stage2_mmu.stage2_tlb.walker.requestOrigin_Completed::Inst            0                       # Table walker requests started/completed, data/inst
system.cpu.itb.stage2_mmu.stage2_tlb.walker.requestOrigin_Completed::total            0                       # Table walker requests started/completed, data/inst
system.cpu.itb.stage2_mmu.stage2_tlb.walker.requestOrigin::total            0                       # Table walker requests started/completed, data/inst
system.cpu.itb.stage2_mmu.stage2_tlb.walker.power_state.pwrStateResidencyTicks::UNDEFINED 207247056865                       # Cumulative time (in ticks) in various power states
system.cpu.itb.walker.walks                         0                       # Table walker walks requested
system.cpu.itb.walker.requestOrigin_Requested::Data            0                       # Table walker requests started/completed, data/inst
system.cpu.itb.walker.requestOrigin_Requested::Inst            0                       # Table walker requests started/completed, data/inst
system.cpu.itb.walker.requestOrigin_Requested::total            0                       # Table walker requests started/completed, data/inst
system.cpu.itb.walker.requestOrigin_Completed::Data            0                       # Table walker requests started/completed, data/inst
system.cpu.itb.walker.requestOrigin_Completed::Inst            0                       # Table walker requests started/completed, data/inst
system.cpu.itb.walker.requestOrigin_Completed::total            0                       # Table walker requests started/completed, data/inst
system.cpu.itb.walker.requestOrigin::total            0                       # Table walker requests started/completed, data/inst
system.cpu.itb.walker.power_state.pwrStateResidencyTicks::UNDEFINED 207247056865                       # Cumulative time (in ticks) in various power states
system.cpu.power_state.numTransitions               1                       # Number of power state transitions
system.cpu.power_state.pwrStateResidencyTicks::ON 207073710840                       # Cumulative time (in ticks) in various power states
system.cpu.power_state.pwrStateResidencyTicks::OFF    173346025                       # Cumulative time (in ticks) in various power states
system.cpu.thread_0.numInsts                        0                       # Number of Instructions committed
system.cpu.thread_0.numOps                          0                       # Number of Ops committed
system.cpu.thread_0.numMemRefs                      0                       # Number of Memory References
system.cpu_clk_domain.clock                       323                       # Clock period in ticks
system.cpu_voltage_domain.voltage                   1                       # Voltage in Volts
system.l2.demand_hits::.switch_cpus.data           27                       # number of demand (read+write) hits
system.l2.demand_hits::total                       27                       # number of demand (read+write) hits
system.l2.overall_hits::.switch_cpus.data           27                       # number of overall hits
system.l2.overall_hits::total                      27                       # number of overall hits
system.l2.demand_misses::.cpu.inst                  3                       # number of demand (read+write) misses
system.l2.demand_misses::.cpu.data                  1                       # number of demand (read+write) misses
system.l2.demand_misses::.switch_cpus.inst           41                       # number of demand (read+write) misses
system.l2.demand_misses::.switch_cpus.data           96                       # number of demand (read+write) misses
system.l2.demand_misses::total                    141                       # number of demand (read+write) misses
system.l2.overall_misses::.cpu.inst                 3                       # number of overall misses
system.l2.overall_misses::.cpu.data                 1                       # number of overall misses
system.l2.overall_misses::.switch_cpus.inst           41                       # number of overall misses
system.l2.overall_misses::.switch_cpus.data           96                       # number of overall misses
[...]
system.switch_cpus.dtb.walker.walks                 0                       # Table walker walks requested
system.switch_cpus.dtb.walker.requestOrigin_Requested::Data            0                       # Table walker requests started/completed, data/inst
system.switch_cpus.dtb.walker.requestOrigin_Requested::Inst            0                       # Table walker requests started/completed, data/inst
system.switch_cpus.dtb.walker.requestOrigin_Requested::total            0                       # Table walker requests started/completed, data/inst
system.switch_cpus.dtb.walker.requestOrigin_Completed::Data            0                       # Table walker requests started/completed, data/inst
system.switch_cpus.dtb.walker.requestOrigin_Completed::Inst            0                       # Table walker requests started/completed, data/inst
system.switch_cpus.dtb.walker.requestOrigin_Completed::total            0                       # Table walker requests started/completed, data/inst
system.switch_cpus.dtb.walker.requestOrigin::total            0                       # Table walker requests started/completed, data/inst
system.switch_cpus.dtb.walker.power_state.pwrStateResidencyTicks::UNDEFINED   1467338935                       # Cumulative time (in ticks) in various power states
system.switch_cpus.fetch.icacheStallCycles      1717493                       # Number of cycles fetch is stalled on an Icache miss
system.switch_cpus.fetch.insts               11746535                       # Number of instructions fetch has processed
system.switch_cpus.fetch.branches             1373029                       # Number of branches that fetch encountered
system.switch_cpus.fetch.predictedBranches      1335458                       # Number of branches that fetch has predicted taken
system.switch_cpus.fetch.cycles               2802683                       # Number of cycles fetch has run and was not squashing or blocked
system.switch_cpus.fetch.squashCycles           45338                       # Number of cycles fetch has spent squashing
system.switch_cpus.fetch.cacheLines           1703668                       # Number of cache lines fetched
system.switch_cpus.fetch.icacheSquashes          8707                       # Number of outstanding Icache misses that were squashed
system.switch_cpus.fetch.nisnDist::samples      4542845                       # Number of instructions fetched each cycle (Total)
system.switch_cpus.fetch.nisnDist::mean      2.868454                       # Number of instructions fetched each cycle (Total)
system.switch_cpus.fetch.nisnDist::stdev     3.105084                       # Number of instructions fetched each cycle (Total)
system.switch_cpus.fetch.nisnDist::underflows            0      0.00%      0.00% # Number of instructions fetched each cycle (Total)
system.switch_cpus.fetch.nisnDist::0          1939080     42.68%     42.68% # Number of instructions fetched each cycle (Total)
system.switch_cpus.fetch.nisnDist::1           213492      4.70%     47.38% # Number of instructions fetched each cycle (Total)
system.switch_cpus.fetch.nisnDist::2           318099      7.00%     54.39% # Number of instructions fetched each cycle (Total)
system.switch_cpus.fetch.nisnDist::3           269821      5.94%     60.33% # Number of instructions fetched each cycle (Total)
system.switch_cpus.fetch.nisnDist::4           543907     11.97%     72.30% # Number of instructions fetched each cycle (Total)
system.switch_cpus.fetch.nisnDist::5           102562      2.26%     74.56% # Number of instructions fetched each cycle (Total)
system.switch_cpus.fetch.nisnDist::6           238545      5.25%     79.81% # Number of instructions fetched each cycle (Total)
system.switch_cpus.fetch.nisnDist::7            86630      1.91%     81.71% # Number of instructions fetched each cycle (Total)
system.switch_cpus.fetch.nisnDist::8           830709     18.29%    100.00% # Number of instructions fetched each cycle (Total)
system.switch_cpus.fetch.nisnDist::overflows            0      0.00%    100.00% # Number of instructions fetched each cycle (Total)
system.switch_cpus.fetch.nisnDist::min_value            0                       # Number of instructions fetched each cycle (Total)
system.switch_cpus.fetch.nisnDist::max_value            8                       # Number of instructions fetched each cycle (Total)
system.switch_cpus.fetch.nisnDist::total      4542845                       # Number of instructions fetched each cycle (Total)
system.switch_cpus.fetch.branchRate          0.302240                       # Number of branch fetches per cycle
system.switch_cpus.fetch.rate                2.585722                       # Number of inst fetches per cycle
system.switch_cpus.itb.instHits                     0                       # ITB inst hits
system.switch_cpus.itb.instMisses                   0                       # ITB inst misses
system.switch_cpus.itb.readHits                     0                       # DTB read hits
system.switch_cpus.itb.readMisses                   0                       # DTB read misses
system.switch_cpus.itb.writeHits                    0                       # DTB write hits
system.switch_cpus.itb.writeMisses                  0                       # DTB write misses
system.switch_cpus.itb.inserts                      0                       # Number of times an entry is inserted into the TLB
system.switch_cpus.itb.flushTlb                     0                       # Number of times complete TLB was flushed
system.switch_cpus.itb.flushTlbMva                  0                       # Number of times TLB was flushed by MVA
system.switch_cpus.itb.flushTlbMvaAsid              0                       # Number of times TLB was flushed by MVA & ASID
system.switch_cpus.itb.flushTlbAsid                 0                       # Number of times TLB was flushed by ASID
system.switch_cpus.itb.flushedEntries               0                       # Number of entries that have been flushed from TLB
system.switch_cpus.itb.alignFaults                  0                       # Number of TLB faults due to alignment restrictions
system.switch_cpus.itb.prefetchFaults               0                       # Number of TLB faults due to prefetch
system.switch_cpus.itb.domainFaults                 0                       # Number of TLB faults due to domain restrictions
system.switch_cpus.itb.permsFaults                  0                       # Number of TLB faults due to permissions restrictions
system.switch_cpus.itb.readAccesses                 0                       # DTB read accesses
system.switch_cpus.itb.writeAccesses                0                       # DTB write accesses
system.switch_cpus.itb.instAccesses                 0                       # ITB inst accesses
system.switch_cpus.itb.hits                         0                       # Total TLB (inst and data) hits
system.switch_cpus.itb.misses                       0                       # Total TLB (inst and data) misses
system.switch_cpus.itb.accesses                     0                       # Total TLB (inst and data) accesses
system.switch_cpus.itb.stage2_mmu.stage2_tlb.instHits            0                       # ITB inst hits
system.switch_cpus.itb.stage2_mmu.stage2_tlb.instMisses            0                       # ITB inst misses
system.switch_cpus.itb.stage2_mmu.stage2_tlb.readHits            0                       # DTB read hits
system.switch_cpus.itb.stage2_mmu.stage2_tlb.readMisses            0                       # DTB read misses
system.switch_cpus.itb.stage2_mmu.stage2_tlb.writeHits            0                       # DTB write hits
system.switch_cpus.itb.stage2_mmu.stage2_tlb.writeMisses            0                       # DTB write misses
system.switch_cpus.itb.stage2_mmu.stage2_tlb.inserts            0                       # Number of times an entry is inserted into the TLB
system.switch_cpus.itb.stage2_mmu.stage2_tlb.flushTlb            0                       # Number of times complete TLB was flushed
system.switch_cpus.itb.stage2_mmu.stage2_tlb.flushTlbMva            0                       # Number of times TLB was flushed by MVA
system.switch_cpus.itb.stage2_mmu.stage2_tlb.flushTlbMvaAsid            0                       # Number of times TLB was flushed by MVA & ASID
system.switch_cpus.itb.stage2_mmu.stage2_tlb.flushTlbAsid            0                       # Number of times TLB was flushed by ASID
system.switch_cpus.itb.stage2_mmu.stage2_tlb.flushedEntries            0                       # Number of entries that have been flushed from TLB
system.switch_cpus.itb.stage2_mmu.stage2_tlb.alignFaults            0                       # Number of TLB faults due to alignment restrictions
system.switch_cpus.itb.stage2_mmu.stage2_tlb.prefetchFaults            0                       # Number of TLB faults due to prefetch
system.switch_cpus.itb.stage2_mmu.stage2_tlb.domainFaults            0                       # Number of TLB faults due to domain restrictions
system.switch_cpus.itb.stage2_mmu.stage2_tlb.permsFaults            0                       # Number of TLB faults due to permissions restrictions
system.switch_cpus.itb.stage2_mmu.stage2_tlb.readAccesses            0                       # DTB read accesses
system.switch_cpus.itb.stage2_mmu.stage2_tlb.writeAccesses            0                       # DTB write accesses
system.switch_cpus.itb.stage2_mmu.stage2_tlb.instAccesses            0                       # ITB inst accesses
system.switch_cpus.itb.stage2_mmu.stage2_tlb.hits            0                       # Total TLB (inst and data) hits
system.switch_cpus.itb.stage2_mmu.stage2_tlb.misses            0                       # Total TLB (inst and data) misses
system.switch_cpus.itb.stage2_mmu.stage2_tlb.accesses            0                       # Total TLB (inst and data) accesses
system.switch_cpus.itb.stage2_mmu.stage2_tlb.walker.walks            0                       # Table walker walks requested
system.switch_cpus.itb.stage2_mmu.stage2_tlb.walker.requestOrigin_Requested::Data            0                       # Table walker requests started/completed, data/inst
system.switch_cpus.itb.stage2_mmu.stage2_tlb.walker.requestOrigin_Requested::Inst            0                       # Table walker requests started/completed, data/inst
system.switch_cpus.itb.stage2_mmu.stage2_tlb.walker.requestOrigin_Requested::total            0                       # Table walker requests started/completed, data/inst
system.switch_cpus.itb.stage2_mmu.stage2_tlb.walker.requestOrigin_Completed::Data            0                       # Table walker requests started/completed, data/inst
system.switch_cpus.itb.stage2_mmu.stage2_tlb.walker.requestOrigin_Completed::Inst            0                       # Table walker requests started/completed, data/inst
system.switch_cpus.itb.stage2_mmu.stage2_tlb.walker.requestOrigin_Completed::total            0                       # Table walker requests started/completed, data/inst
system.switch_cpus.itb.stage2_mmu.stage2_tlb.walker.requestOrigin::total            0                       # Table walker requests started/completed, data/inst
system.switch_cpus.itb.stage2_mmu.stage2_tlb.walker.power_state.pwrStateResidencyTicks::UNDEFINED   1467338935                       # Cumulative time (in ticks) in various power states
system.switch_cpus.itb.walker.walks                 0                       # Table walker walks requested
system.switch_cpus.itb.walker.requestOrigin_Requested::Data            0                       # Table walker requests started/completed, data/inst
system.switch_cpus.itb.walker.requestOrigin_Requested::Inst            0                       # Table walker requests started/completed, data/inst
system.switch_cpus.itb.walker.requestOrigin_Requested::total            0                       # Table walker requests started/completed, data/inst
system.switch_cpus.itb.walker.requestOrigin_Completed::Data            0                       # Table walker requests started/completed, data/inst
system.switch_cpus.itb.walker.requestOrigin_Completed::Inst            0                       # Table walker requests started/completed, data/inst
system.switch_cpus.itb.walker.requestOrigin_Completed::total            0                       # Table walker requests started/completed, data/inst
system.switch_cpus.itb.walker.requestOrigin::total            0                       # Table walker requests started/completed, data/inst
system.switch_cpus.itb.walker.power_state.pwrStateResidencyTicks::UNDEFINED   1467338935                       # Cumulative time (in ticks) in various power states
system.switch_cpus.lsq0.forwLoads             1593219                       # Number of loads that had data forwarded from stores
system.switch_cpus.lsq0.squashedLoads          440491                       # Number of loads squashed
system.switch_cpus.lsq0.ignoredResponses          787                       # Number of memory responses ignored because the instruction is squashed
system.switch_cpus.lsq0.memOrderViolation         1479                       # Number of memory ordering violations
system.switch_cpus.lsq0.squashedStores         333598                       # Number of stores squashed
system.switch_cpus.lsq0.rescheduledLoads       148918                       # Number of loads that were rescheduled
system.switch_cpus.lsq0.blockedByCache              0                       # Number of times an access to memory failed due to the cache being blocked
system.switch_cpus.power_state.pwrStateResidencyTicks::OFF   1467338935                       # Cumulative time (in ticks) in various power states
system.switch_cpus.rename.squashCycles          22668                       # Number of cycles rename is squashing
system.switch_cpus.rename.idleCycles          1379107                       # Number of cycles rename is idle
system.switch_cpus.rename.blockCycles          228687                       # Number of cycles rename is blocking
system.switch_cpus.rename.serializeStallCycles          202                       # count of cycles rename stalledfor serializing inst
system.switch_cpus.rename.runCycles           2173014                       # Number of cycles rename is running
system.switch_cpus.rename.unblockCycles        739167                       # Number of cycles rename is unblocking
system.switch_cpus.rename.renamedInsts       12709336                       # Number of instructions processed by rename
system.switch_cpus.rename.IQFullEvents         177081                       # Number of times rename has blocked due to IQ full
system.switch_cpus.rename.LQFullEvents         467985                       # Number of times rename has blocked due to LQ full
system.switch_cpus.rename.SQFullEvents          62983                       # Number of times rename has blocked due to SQ full
system.switch_cpus.rename.renamedOperands     11971980                       # Number of destination operands rename has renamed
system.switch_cpus.rename.lookups            18299807                       # Number of register rename lookups that rename has made
system.switch_cpus.rename.intLookups         16146902                       # Number of integer rename lookups
system.switch_cpus.rename.committedMaps      10515019                       # Number of HB maps that are committed
system.switch_cpus.rename.undoneMaps          1456940                       # Number of HB maps that are undone due to squashing
system.switch_cpus.rename.serializing              36                       # count of serializing insts renamed
system.switch_cpus.rename.tempSerializing            0                       # count of temporary serializing insts renamed
system.switch_cpus.rename.skidInsts           1078959                       # count of insts added to the skid buffer
system.switch_cpus.rob.reads                 16241928                       # The number of ROB reads
system.switch_cpus.rob.writes                25401714                       # The number of ROB writes
system.switch_cpus.thread_0.numInsts          9999998                       # Number of Instructions committed
system.switch_cpus.thread_0.numOps           11015563                       # Number of Ops committed
system.switch_cpus.thread_0.numMemRefs              0                       # Number of Memory References
system.tol2bus.trans_dist::ReadResp                67                       # Transaction distribution
system.tol2bus.trans_dist::WritebackDirty          125                       # Transaction distribution
system.tol2bus.trans_dist::CleanEvict              14                       # Transaction distribution
system.tol2bus.trans_dist::HardPFReq              189                       # Transaction distribution
system.tol2bus.trans_dist::ReadExReq              204                       # Transaction distribution
system.tol2bus.trans_dist::ReadExResp             204                       # Transaction distribution
system.tol2bus.trans_dist::ReadSharedReq           67                       # Transaction distribution
system.tol2bus.pkt_count_system.cpu.dcache.mem_side_port::system.l2.cpu_side_port          681                       # Packet count per connected requestor and responder (bytes)
system.tol2bus.pkt_count::total                   681                       # Packet count per connected requestor and responder (bytes)
system.tol2bus.pkt_size_system.cpu.dcache.mem_side_port::system.l2.cpu_side_port        50688                       # Cumulative packet size per connected requestor and responder (bytes)
system.tol2bus.pkt_size::total                  50688                       # Cumulative packet size per connected requestor and responder (bytes)
system.tol2bus.snoops                             189                       # Total snoops (count)
system.tol2bus.snoopTraffic                         0                       # Total snoop traffic (bytes)
system.tol2bus.snoop_fanout::samples              460                       # Request fanout histogram
system.tol2bus.snoop_fanout::mean                   0                       # Request fanout histogram
system.tol2bus.snoop_fanout::stdev                  0                       # Request fanout histogram
system.tol2bus.snoop_fanout::underflows             0      0.00%      0.00% # Request fanout histogram
system.tol2bus.snoop_fanout::0                    460    100.00%    100.00% # Request fanout histogram
system.tol2bus.snoop_fanout::1                      0      0.00%    100.00% # Request fanout histogram
system.tol2bus.snoop_fanout::2                      0      0.00%    100.00% # Request fanout histogram
system.tol2bus.snoop_fanout::overflows              0      0.00%    100.00% # Request fanout histogram
system.tol2bus.snoop_fanout::min_value              0                       # Request fanout histogram
system.tol2bus.snoop_fanout::max_value              0                       # Request fanout histogram
system.tol2bus.snoop_fanout::total                460                       # Request fanout histogram
system.tol2bus.power_state.pwrStateResidencyTicks::UNDEFINED   1467338935                       # Cumulative time (in ticks) in various power states
system.tol2bus.reqLayer0.occupancy             293930                       # Layer occupancy (ticks)
system.tol2bus.reqLayer0.utilization              0.0                       # Layer utilization (%)
system.tol2bus.respLayer1.occupancy            437665                       # Layer occupancy (ticks)
system.tol2bus.respLayer1.utilization             0.0                       # Layer utilization (%)
system.voltage_domain.voltage                       1                       # Voltage in Volts

---------- End Simulation Statistics   ----------
