
---------- Begin Simulation Statistics ----------
final_tick                               238077278311                       # Number of ticks from beginning of simulation (restored from checkpoints and never reset)
host_inst_rate                                 385512                       # Simulator instruction rate (inst/s)
host_mem_usage                               16965264                       # Number of bytes of host memory used
host_op_rate                                   424660                       # Simulator op (including micro ops) rate (op/s)
host_seconds                                     2.59                       # Real time elapsed on the host
host_tick_rate                               65627775                       # Simulator tick rate (ticks/s)
sim_freq                                 1000000000000                       # Frequency of simulated ticks
sim_insts                                     1000033                       # Number of instructions simulated
sim_ops                                       1101603                       # Number of ops (including micro ops) simulated
sim_seconds                                  0.000170                       # Number of seconds simulated
sim_ticks                                   170244711                       # Number of ticks simulated
system.cpu.Branches                                 2                       # Number of branches fetched
system.cpu.committedInsts                          26                       # Number of instructions committed
system.cpu.committedOps                            30                       # Number of ops (including micro ops) committed
system.cpu.idle_fraction                            0                       # Percentage of idle cycles
system.cpu.not_idle_fraction                        1                       # Percentage of non-idle cycles
system.cpu.numCycles                               30                       # number of cpu cycles simulated
system.cpu.numWorkItemsCompleted                    0                       # number of work items this cpu completed
system.cpu.numWorkItemsStarted                      0                       # number of work items this cpu started
system.cpu.num_busy_cycles                         30                       # Number of busy cycles
system.cpu.num_conditional_control_insts            0                       # number of instructions that are conditional controls
system.cpu.num_fp_alu_accesses                      0                       # Number of float alu accesses
system.cpu.num_fp_insts                             0                       # number of float instructions
system.cpu.num_fp_register_reads                    0                       # number of times the floating registers were read
system.cpu.num_fp_register_writes                   0                       # number of times the floating registers were written
system.cpu.num_func_calls                           2                       # number of times a function call or return occured
system.cpu.num_idle_cycles                          0                       # Number of idle cycles
system.cpu.num_int_alu_accesses                    30                       # Number of integer alu accesses
system.cpu.num_int_insts                           30                       # number of integer instructions
system.cpu.num_int_register_reads                  34                       # number of times the integer registers were read
system.cpu.num_int_register_writes                 25                       # number of times the integer registers were written
system.cpu.num_load_insts                          17                       # Number of load instructions
system.cpu.num_mem_refs                            22                       # number of memory refs
system.cpu.num_store_insts                          5                       # Number of store instructions
system.cpu.num_vec_alu_accesses                     0                       # Number of vector alu accesses
system.cpu.num_vec_insts                            0                       # number of vector instructions
system.cpu.num_vec_register_reads                   0                       # number of times the vector registers were read
system.cpu.num_vec_register_writes                  0                       # number of times the vector registers were written
system.cpu.op_class::No_OpClass                     0      0.00%      0.00% # Class of executed instruction
system.cpu.op_class::IntAlu                         8     26.67%     26.67% # Class of executed instruction
system.cpu.op_class::IntMult                        0      0.00%     26.67% # Class of executed instruction
system.cpu.op_class::IntDiv                         0      0.00%     26.67% # Class of executed instruction
system.cpu.op_class::FloatAdd                       0      0.00%     26.67% # Class of executed instruction
system.cpu.op_class::FloatCmp                       0      0.00%     26.67% # Class of executed instruction
system.cpu.op_class::FloatCvt                       0      0.00%     26.67% # Class of executed instruction
system.cpu.op_class::FloatMult                      0      0.00%     26.67% # Class of executed instruction
system.cpu.op_class::FloatMultAcc                   0      0.00%     26.67% # Class of executed instruction
system.cpu.op_class::FloatDiv                       0      0.00%     26.67% # Class of executed instruction
system.cpu.op_class::FloatMisc                      0      0.00%     26.67% # Class of executed instruction
system.cpu.op_class::FloatSqrt                      0      0.00%     26.67% # Class of executed instruction
system.cpu.op_class::SimdAdd                        0      0.00%     26.67% # Class of executed instruction
system.cpu.op_class::SimdAddAcc                     0      0.00%     26.67% # Class of executed instruction
system.cpu.op_class::SimdAlu                        0      0.00%     26.67% # Class of executed instruction
system.cpu.op_class::SimdCmp                        0      0.00%     26.67% # Class of executed instruction
system.cpu.op_class::SimdCvt                        0      0.00%     26.67% # Class of executed instruction
system.cpu.op_class::SimdMisc                       0      0.00%     26.67% # Class of executed instruction
system.cpu.op_class::SimdMult                       0      0.00%     26.67% # Class of executed instruction
system.cpu.op_class::SimdMultAcc                    0      0.00%     26.67% # Class of executed instruction
system.cpu.op_class::SimdShift                      0      0.00%     26.67% # Class of executed instruction
system.cpu.op_class::SimdShiftAcc                   0      0.00%     26.67% # Class of executed instruction
system.cpu.op_class::SimdDiv                        0      0.00%     26.67% # Class of executed instruction
system.cpu.op_class::SimdSqrt                       0      0.00%     26.67% # Class of executed instruction
system.cpu.op_class::SimdFloatAdd                   0      0.00%     26.67% # Class of executed instruction
system.cpu.op_class::SimdFloatAlu                   0      0.00%     26.67% # Class of executed instruction
system.cpu.op_class::SimdFloatCmp                   0      0.00%     26.67% # Class of executed instruction
system.cpu.op_class::SimdFloatCvt                   0      0.00%     26.67% # Class of executed instruction
system.cpu.op_class::SimdFloatDiv                   0      0.00%     26.67% # Class of executed instruction
system.cpu.op_class::SimdFloatMisc                  0      0.00%     26.67% # Class of executed instruction
system.cpu.op_class::SimdFloatMult                  0      0.00%     26.67% # Class of executed instruction
system.cpu.op_class::SimdFloatMultAcc               0      0.00%     26.67% # Class of executed instruction
system.cpu.op_class::SimdFloatSqrt                  0      0.00%     26.67% # Class of executed instruction
system.cpu.op_class::SimdReduceAdd                  0      0.00%     26.67% # Class of executed instruction
system.cpu.op_class::SimdReduceAlu                  0      0.00%     26.67% # Class of executed instruction
system.cpu.op_class::SimdReduceCmp                  0      0.00%     26.67% # Class of executed instruction
system.cpu.op_class::SimdFloatReduceAdd             0      0.00%     26.67% # Class of executed instruction
system.cpu.op_class::SimdFloatReduceCmp             0      0.00%     26.67% # Class of executed instruction
system.cpu.op_class::SimdAes                        0      0.00%     26.67% # Class of executed instruction
system.cpu.op_class::SimdAesMix                     0      0.00%     26.67% # Class of executed instruction
system.cpu.op_class::SimdSha1Hash                   0      0.00%     26.67% # Class of executed instruction
system.cpu.op_class::SimdSha1Hash2                  0      0.00%     26.67% # Class of executed instruction
system.cpu.op_class::SimdSha256Hash                 0      0.00%     26.67% # Class of executed instruction
system.cpu.op_class::SimdSha256Hash2                0      0.00%     26.67% # Class of executed instruction
system.cpu.op_class::SimdShaSigma2                  0      0.00%     26.67% # Class of executed instruction
system.cpu.op_class::SimdShaSigma3                  0      0.00%     26.67% # Class of executed instruction
system.cpu.op_class::SimdPredAlu                    0      0.00%     26.67% # Class of executed instruction
system.cpu.op_class::MemRead                       17     56.67%     83.33% # Class of executed instruction
system.cpu.op_class::MemWrite                       5     16.67%    100.00% # Class of executed instruction
system.cpu.op_class::FloatMemRead                   0      0.00%    100.00% # Class of executed instruction
system.cpu.op_class::FloatMemWrite                  0      0.00%    100.00% # Class of executed instruction
system.cpu.op_class::IprAccess                      0      0.00%    100.00% # Class of executed instruction
system.cpu.op_class::InstPrefetch                   0      0.00%    100.00% # Class of executed instruction
system.cpu.op_class::total                         30                       # Class of executed instruction
system.cpu.workload.numSyscalls                     0                       # Number of system calls
system.membus.snoop_filter.hit_multi_requests            0                       # Number of requests hitting in the snoop filter with multiple (>1) holders of the requested data.
system.membus.snoop_filter.hit_multi_snoops            0                       # Number of snoops hitting in the snoop filter with multiple (>1) holders of the requested data.
system.membus.snoop_filter.hit_single_requests            0                       # Number of requests hitting in the snoop filter with a single holder of the requested data.
system.membus.snoop_filter.hit_single_snoops            0                       # Number of snoops hitting in the snoop filter with a single holder of the requested data.
system.membus.snoop_filter.tot_requests           171                       # Total number of requests made to the snoop filter.
system.membus.snoop_filter.tot_snoops               0                       # Total number of snoops made to the snoop filter.
system.switch_cpus.cc_regfile_reads            205770                       # number of cc regfile reads
system.switch_cpus.cc_regfile_writes           207117                       # number of cc regfile writes
system.switch_cpus.committedInsts             1000007                       # Number of Instructions Simulated
system.switch_cpus.committedOps               1101573                       # Number of Ops (including micro ops) Simulated
system.switch_cpus.cpi                       0.527038                       # CPI: Cycles Per Instruction
system.switch_cpus.cpi_total                 0.527038                       # CPI: Total CPI of All Threads
system.switch_cpus.idleCycles                    5288                       # Total number of cycles that the CPU has spent unscheduled due to idling
system.switch_cpus.iew.branchMispredicts         2747                       # Number of branch mispredicts detected at execute
system.switch_cpus.iew.exec_branches           130490                       # Number of branches executed
system.switch_cpus.iew.exec_nop                  3802                       # number of nop insts executed
system.switch_cpus.iew.exec_rate             2.372507                       # Inst execution rate
system.switch_cpus.iew.exec_refs               560614                       # number of memory reference insts executed
system.switch_cpus.iew.exec_stores             201376                       # Number of stores executed
system.switch_cpus.iew.exec_swp                     0                       # number of swp insts executed
system.switch_cpus.iew.iewBlockCycles           26145                       # Number of cycles IEW is blocking
system.switch_cpus.iew.iewDispLoadInsts        368934                       # Number of dispatched load instructions
system.switch_cpus.iew.iewDispNonSpecInsts            0                       # Number of dispatched non-speculative instructions
system.switch_cpus.iew.iewDispSquashedInsts          108                       # Number of squashed instructions skipped by dispatch
system.switch_cpus.iew.iewDispStoreInsts       219332                       # Number of dispatched store instructions
system.switch_cpus.iew.iewDispatchedInsts      1316266                       # Number of instructions dispatched to IQ
system.switch_cpus.iew.iewExecLoadInsts        359238                       # Number of load instructions executed
system.switch_cpus.iew.iewExecSquashedInsts         5634                       # Number of squashed instructions skipped in execute
system.switch_cpus.iew.iewExecutedInsts       1250411                       # Number of executed instructions
system.switch_cpus.iew.iewIQFullEvents              9                       # Number of times the IQ has become full, causing a stall
system.switch_cpus.iew.iewIdleCycles                0                       # Number of cycles IEW is idle
system.switch_cpus.iew.iewLSQFullEvents         12668                       # Number of times the LSQ has become full, causing a stall
system.switch_cpus.iew.iewSquashCycles           2871                       # Number of cycles IEW is squashing
system.switch_cpus.iew.iewUnblockCycles         12670                       # Number of cycles IEW is unblocking
system.switch_cpus.iew.memOrderViolationEvents          173                       # Number of memory order violations
system.switch_cpus.iew.predictedNotTakenIncorrect         1112                       # Number of branches that were predicted not taken incorrectly
system.switch_cpus.iew.predictedTakenIncorrect         1635                       # Number of branches that were predicted taken incorrectly
system.switch_cpus.iew.wb_consumers           1247485                       # num instructions consuming a value
system.switch_cpus.iew.wb_count               1229394                       # cumulative count of insts written-back
system.switch_cpus.iew.wb_fanout             0.671460                       # average fanout of values written-back
system.switch_cpus.iew.wb_producers            837636                       # num instructions producing a value
system.switch_cpus.iew.wb_rate               2.332630                       # insts written-back per cycle
system.switch_cpus.iew.wb_sent                1230363                       # cumulative count of insts sent to commit
system.switch_cpus.int_regfile_reads          1576457                       # number of integer regfile reads
system.switch_cpus.int_regfile_writes          959573                       # number of integer regfile writes
system.switch_cpus.ipc                       1.897395                       # IPC: Instructions Per Cycle
system.switch_cpus.ipc_total                 1.897395                       # IPC: Total IPC of All Threads
system.switch_cpus.iq.FU_type_0::No_OpClass            7      0.00%      0.00% # Type of FU issued
system.switch_cpus.iq.FU_type_0::IntAlu        650868     51.82%     51.82% # Type of FU issued
system.switch_cpus.iq.FU_type_0::IntMult        40814      3.25%     55.07% # Type of FU issued
system.switch_cpus.iq.FU_type_0::IntDiv             0      0.00%     55.07% # Type of FU issued
system.switch_cpus.iq.FU_type_0::FloatAdd            0      0.00%     55.07% # Type of FU issued
system.switch_cpus.iq.FU_type_0::FloatCmp            0      0.00%     55.07% # Type of FU issued
system.switch_cpus.iq.FU_type_0::FloatCvt            0      0.00%     55.07% # Type of FU issued
system.switch_cpus.iq.FU_type_0::FloatMult            0      0.00%     55.07% # Type of FU issued
system.switch_cpus.iq.FU_type_0::FloatMultAcc            0      0.00%     55.07% # Type of FU issued
system.switch_cpus.iq.FU_type_0::FloatDiv            0      0.00%     55.07% # Type of FU issued
system.switch_cpus.iq.FU_type_0::FloatMisc            0      0.00%     55.07% # Type of FU issued
system.switch_cpus.iq.FU_type_0::FloatSqrt            0      0.00%     55.07% # Type of FU issued
system.switch_cpus.iq.FU_type_0::SimdAdd            0      0.00%     55.07% # Type of FU issued
system.switch_cpus.iq.FU_type_0::SimdAddAcc            0      0.00%     55.07% # Type of FU issued
system.switch_cpus.iq.FU_type_0::SimdAlu            0      0.00%     55.07% # Type of FU issued
system.switch_cpus.iq.FU_type_0::SimdCmp            0      0.00%     55.07% # Type of FU issued
system.switch_cpus.iq.FU_type_0::SimdCvt            0      0.00%     55.07% # Type of FU issued
system.switch_cpus.iq.FU_type_0::SimdMisc            0      0.00%     55.07% # Type of FU issued
system.switch_cpus.iq.FU_type_0::SimdMult            0      0.00%     55.07% # Type of FU issued
system.switch_cpus.iq.FU_type_0::SimdMultAcc            0      0.00%     55.07% # Type of FU issued
system.switch_cpus.iq.FU_type_0::SimdShift            0      0.00%     55.07% # Type of FU issued
system.switch_cpus.iq.FU_type_0::SimdShiftAcc            0      0.00%     55.07% # Type of FU issued
system.switch_cpus.iq.FU_type_0::SimdDiv            0      0.00%     55.07% # Type of FU issued
system.switch_cpus.iq.FU_type_0::SimdSqrt            0      0.00%     55.07% # Type of FU issued
system.switch_cpus.iq.FU_type_0::SimdFloatAdd            0      0.00%     55.07% # Type of FU issued
system.switch_cpus.iq.FU_type_0::SimdFloatAlu            0      0.00%     55.07% # Type of FU issued
system.switch_cpus.iq.FU_type_0::SimdFloatCmp            0      0.00%     55.07% # Type of FU issued
system.switch_cpus.iq.FU_type_0::SimdFloatCvt            0      0.00%     55.07% # Type of FU issued
system.switch_cpus.iq.FU_type_0::SimdFloatDiv            0      0.00%     55.07% # Type of FU issued
system.switch_cpus.iq.FU_type_0::SimdFloatMisc            0      0.00%     55.07% # Type of FU issued
system.switch_cpus.iq.FU_type_0::SimdFloatMult            0      0.00%     55.07% # Type of FU issued
system.switch_cpus.iq.FU_type_0::SimdFloatMultAcc            0      0.00%     55.07% # Type of FU issued
system.switch_cpus.iq.FU_type_0::SimdFloatSqrt            0      0.00%     55.07% # Type of FU issued
system.switch_cpus.iq.FU_type_0::SimdReduceAdd            0      0.00%     55.07% # Type of FU issued
system.switch_cpus.iq.FU_type_0::SimdReduceAlu            0      0.00%     55.07% # Type of FU issued
system.switch_cpus.iq.FU_type_0::SimdReduceCmp            0      0.00%     55.07% # Type of FU issued
system.switch_cpus.iq.FU_type_0::SimdFloatReduceAdd            0      0.00%     55.07% # Type of FU issued
system.switch_cpus.iq.FU_type_0::SimdFloatReduceCmp            0      0.00%     55.07% # Type of FU issued
system.switch_cpus.iq.FU_type_0::SimdAes            0      0.00%     55.07% # Type of FU issued
system.switch_cpus.iq.FU_type_0::SimdAesMix            0      0.00%     55.07% # Type of FU issued
system.switch_cpus.iq.FU_type_0::SimdSha1Hash            0      0.00%     55.07% # Type of FU issued
system.switch_cpus.iq.FU_type_0::SimdSha1Hash2            0      0.00%     55.07% # Type of FU issued
system.switch_cpus.iq.FU_type_0::SimdSha256Hash            0      0.00%     55.07% # Type of FU issued
system.switch_cpus.iq.FU_type_0::SimdSha256Hash2            0      0.00%     55.07% # Type of FU issued
system.switch_cpus.iq.FU_type_0::SimdShaSigma2            0      0.00%     55.07% # Type of FU issued
system.switch_cpus.iq.FU_type_0::SimdShaSigma3            0      0.00%     55.07% # Type of FU issued
system.switch_cpus.iq.FU_type_0::SimdPredAlu            0      0.00%     55.07% # Type of FU issued
system.switch_cpus.iq.FU_type_0::MemRead       361638     28.79%     83.86% # Type of FU issued
system.switch_cpus.iq.FU_type_0::MemWrite       202719     16.14%    100.00% # Type of FU issued
system.switch_cpus.iq.FU_type_0::FloatMemRead            0      0.00%    100.00% # Type of FU issued
system.switch_cpus.iq.FU_type_0::FloatMemWrite            0      0.00%    100.00% # Type of FU issued
system.switch_cpus.iq.FU_type_0::IprAccess            0      0.00%    100.00% # Type of FU issued
system.switch_cpus.iq.FU_type_0::InstPrefetch            0      0.00%    100.00% # Type of FU issued
system.switch_cpus.iq.FU_type_0::total        1256046                       # Type of FU issued
system.switch_cpus.iq.fp_alu_accesses               0                       # Number of floating point alu accesses
system.switch_cpus.iq.fp_inst_queue_reads            0                       # Number of floating instruction queue reads
system.switch_cpus.iq.fp_inst_queue_wakeup_accesses            0                       # Number of floating instruction queue wakeup accesses
system.switch_cpus.iq.fp_inst_queue_writes            0                       # Number of floating instruction queue writes
system.switch_cpus.iq.fu_busy_cnt               14824                       # FU busy when requested
system.switch_cpus.iq.fu_busy_rate           0.011802                       # FU busy rate (busy events/executed inst)
system.switch_cpus.iq.fu_full::No_OpClass            0      0.00%      0.00% # attempts to use FU when none available
system.switch_cpus.iq.fu_full::IntAlu              32      0.22%      0.22% # attempts to use FU when none available
system.switch_cpus.iq.fu_full::IntMult              0      0.00%      0.22% # attempts to use FU when none available
system.switch_cpus.iq.fu_full::IntDiv               0      0.00%      0.22% # attempts to use FU when none available
system.switch_cpus.iq.fu_full::FloatAdd             0      0.00%      0.22% # attempts to use FU when none available
system.switch_cpus.iq.fu_full::FloatCmp             0      0.00%      0.22% # attempts to use FU when none available
system.switch_cpus.iq.fu_full::FloatCvt             0      0.00%      0.22% # attempts to use FU when none available
system.switch_cpus.iq.fu_full::FloatMult            0      0.00%      0.22% # attempts to use FU when none available
system.switch_cpus.iq.fu_full::FloatMultAcc            0      0.00%      0.22% # attempts to use FU when none available
system.switch_cpus.iq.fu_full::FloatDiv             0      0.00%      0.22% # attempts to use FU when none available
system.switch_cpus.iq.fu_full::FloatMisc            0      0.00%      0.22% # attempts to use FU when none available
system.switch_cpus.iq.fu_full::FloatSqrt            0      0.00%      0.22% # attempts to use FU when none available
system.switch_cpus.iq.fu_full::SimdAdd              0      0.00%      0.22% # attempts to use FU when none available
system.switch_cpus.iq.fu_full::SimdAddAcc            0      0.00%      0.22% # attempts to use FU when none available
system.switch_cpus.iq.fu_full::SimdAlu              0      0.00%      0.22% # attempts to use FU when none available
system.switch_cpus.iq.fu_full::SimdCmp              0      0.00%      0.22% # attempts to use FU when none available
system.switch_cpus.iq.fu_full::SimdCvt              0      0.00%      0.22% # attempts to use FU when none available
system.switch_cpus.iq.fu_full::SimdMisc             0      0.00%      0.22% # attempts to use FU when none available
system.switch_cpus.iq.fu_full::SimdMult             0      0.00%      0.22% # attempts to use FU when none available
system.switch_cpus.iq.fu_full::SimdMultAcc            0      0.00%      0.22% # attempts to use FU when none available
system.switch_cpus.iq.fu_full::SimdShift            0      0.00%      0.22% # attempts to use FU when none available
system.switch_cpus.iq.fu_full::SimdShiftAcc            0      0.00%      0.22% # attempts to use FU when none available
system.switch_cpus.iq.fu_full::SimdDiv              0      0.00%      0.22% # attempts to use FU when none available
system.switch_cpus.iq.fu_full::SimdSqrt             0      0.00%      0.22% # attempts to use FU when none available
system.switch_cpus.iq.fu_full::SimdFloatAdd            0      0.00%      0.22% # attempts to use FU when none available
system.switch_cpus.iq.fu_full::SimdFloatAlu            0      0.00%      0.22% # attempts to use FU when none available
system.switch_cpus.iq.fu_full::SimdFloatCmp            0      0.00%      0.22% # attempts to use FU when none available
system.switch_cpus.iq.fu_full::SimdFloatCvt            0      0.00%      0.22% # attempts to use FU when none available
system.switch_cpus.iq.fu_full::SimdFloatDiv            0      0.00%      0.22% # attempts to use FU when none available
system.switch_cpus.iq.fu_full::SimdFloatMisc            0      0.00%      0.22% # attempts to use FU when none available
system.switch_cpus.iq.fu_full::SimdFloatMult            0      0.00%      0.22% # attempts to use FU when none available
system.switch_cpus.iq.fu_full::SimdFloatMultAcc            0      0.00%      0.22% # attempts to use FU when none available
system.switch_cpus.iq.fu_full::SimdFloatSqrt            0      0.00%      0.22% # attempts to use FU when none available
system.switch_cpus.iq.fu_full::SimdReduceAdd            0      0.00%      0.22% # attempts to use FU when none available
system.switch_cpus.iq.fu_full::SimdReduceAlu            0      0.00%      0.22% # attempts to use FU when none available
system.switch_cpus.iq.fu_full::SimdReduceCmp            0      0.00%      0.22% # attempts to use FU when none available
system.switch_cpus.iq.fu_full::SimdFloatReduceAdd            0      0.00%      0.22% # attempts to use FU when none available
system.switch_cpus.iq.fu_full::SimdFloatReduceCmp            0      0.00%      0.22% # attempts to use FU when none available
system.switch_cpus.iq.fu_full::SimdAes              0      0.00%      0.22% # attempts to use FU when none available
system.switch_cpus.iq.fu_full::SimdAesMix            0      0.00%      0.22% # attempts to use FU when none available
system.switch_cpus.iq.fu_full::SimdSha1Hash            0      0.00%      0.22% # attempts to use FU when none available
system.switch_cpus.iq.fu_full::SimdSha1Hash2            0      0.00%      0.22% # attempts to use FU when none available
system.switch_cpus.iq.fu_full::SimdSha256Hash            0      0.00%      0.22% # attempts to use FU when none available
system.switch_cpus.iq.fu_full::SimdSha256Hash2            0      0.00%      0.22% # attempts to use FU when none available
system.switch_cpus.iq.fu_full::SimdShaSigma2            0      0.00%      0.22% # attempts to use FU when none available
system.switch_cpus.iq.fu_full::SimdShaSigma3            0      0.00%      0.22% # attempts to use FU when none available
system.switch_cpus.iq.fu_full::SimdPredAlu            0      0.00%      0.22% # attempts to use FU when none available
system.switch_cpus.iq.fu_full::MemRead          10155     68.50%     68.72% # attempts to use FU when none available
system.switch_cpus.iq.fu_full::MemWrite          4637     31.28%    100.00% # attempts to use FU when none available
system.switch_cpus.iq.fu_full::FloatMemRead            0      0.00%    100.00% # attempts to use FU when none available
system.switch_cpus.iq.fu_full::FloatMemWrite            0      0.00%    100.00% # attempts to use FU when none available
system.switch_cpus.iq.fu_full::IprAccess            0      0.00%    100.00% # attempts to use FU when none available
system.switch_cpus.iq.fu_full::InstPrefetch            0      0.00%    100.00% # attempts to use FU when none available
system.switch_cpus.iq.int_alu_accesses        1270863                       # Number of integer alu accesses
system.switch_cpus.iq.int_inst_queue_reads      3048724                       # Number of integer instruction queue reads
system.switch_cpus.iq.int_inst_queue_wakeup_accesses      1229394                       # Number of integer instruction queue wakeup accesses
system.switch_cpus.iq.int_inst_queue_writes      1523460                       # Number of integer instruction queue writes
system.switch_cpus.iq.iqInstsAdded            1312464                       # Number of instructions added to the IQ (excludes non-spec)
system.switch_cpus.iq.iqInstsIssued           1256046                       # Number of instructions issued
system.switch_cpus.iq.iqSquashedInstsExamined       210836                       # Number of squashed instructions iterated over during squash; mainly for profiling
system.switch_cpus.iq.iqSquashedInstsIssued           55                       # Number of squashed instructions issued
system.switch_cpus.iq.iqSquashedOperandsExamined       132122                       # Number of squashed operands that are examined and possibly removed from graph
system.switch_cpus.iq.issued_per_cycle::samples       521754                       # Number of insts issued each cycle
system.switch_cpus.iq.issued_per_cycle::mean     2.407353                       # Number of insts issued each cycle
system.switch_cpus.iq.issued_per_cycle::stdev     1.814239                       # Number of insts issued each cycle
system.switch_cpus.iq.issued_per_cycle::underflows            0      0.00%      0.00% # Number of insts issued each cycle
system.switch_cpus.iq.issued_per_cycle::0        89420     17.14%     17.14% # Number of insts issued each cycle
system.switch_cpus.iq.issued_per_cycle::1        93050     17.83%     34.97% # Number of insts issued each cycle
system.switch_cpus.iq.issued_per_cycle::2       113390     21.73%     56.70% # Number of insts issued each cycle
system.switch_cpus.iq.issued_per_cycle::3        83944     16.09%     72.79% # Number of insts issued each cycle
system.switch_cpus.iq.issued_per_cycle::4        68901     13.21%     86.00% # Number of insts issued each cycle
system.switch_cpus.iq.issued_per_cycle::5        42266      8.10%     94.10% # Number of insts issued each cycle
system.switch_cpus.iq.issued_per_cycle::6        21001      4.03%     98.13% # Number of insts issued each cycle
system.switch_cpus.iq.issued_per_cycle::7         6812      1.31%     99.43% # Number of insts issued each cycle
system.switch_cpus.iq.issued_per_cycle::8         2970      0.57%    100.00% # Number of insts issued each cycle
system.switch_cpus.iq.issued_per_cycle::overflows            0      0.00%    100.00% # Number of insts issued each cycle
system.switch_cpus.iq.issued_per_cycle::min_value            0                       # Number of insts issued each cycle
system.switch_cpus.iq.issued_per_cycle::max_value            8                       # Number of insts issued each cycle
system.switch_cpus.iq.issued_per_cycle::total       521754                       # Number of insts issued each cycle
system.switch_cpus.iq.rate                   2.383199                       # Inst issue rate
system.switch_cpus.iq.vec_alu_accesses              0                       # Number of vector alu accesses
system.switch_cpus.iq.vec_inst_queue_reads            0                       # Number of vector instruction queue reads
system.switch_cpus.iq.vec_inst_queue_wakeup_accesses            0                       # Number of vector instruction queue wakeup accesses
system.switch_cpus.iq.vec_inst_queue_writes            0                       # Number of vector instruction queue writes
system.switch_cpus.memDep0.conflictingLoads       149798                       # Number of conflicting loads.
system.switch_cpus.memDep0.conflictingStores        39350                       # Number of conflicting stores.
system.switch_cpus.memDep0.insertedLoads       368934                       # Number of loads inserted to the mem dependence unit.
system.switch_cpus.memDep0.insertedStores       219332                       # Number of stores inserted to the mem dependence unit.
system.switch_cpus.misc_regfile_reads         2731211                       # number of misc regfile reads
system.switch_cpus.misc_regfile_writes              1                       # number of misc regfile writes
system.switch_cpus.numCycles                   527042                       # number of cpu cycles simulated
system.switch_cpus.numWorkItemsCompleted            0                       # number of work items this cpu completed
system.switch_cpus.numWorkItemsStarted              0                       # number of work items this cpu started
system.switch_cpus.timesIdled                      32                       # Number of times that the entire CPU went into an idle state and unscheduled itself
system.switch_cpus.vec_regfile_writes              44                       # number of vector regfile writes
system.tol2bus.snoop_filter.hit_multi_requests            0                       # Number of requests hitting in the snoop filter with multiple (>1) holders of the requested data.
system.tol2bus.snoop_filter.hit_multi_snoops            0                       # Number of snoops hitting in the snoop filter with multiple (>1) holders of the requested data.
system.tol2bus.snoop_filter.hit_single_requests            0                       # Number of requests hitting in the snoop filter with a single holder of the requested data.
system.tol2bus.snoop_filter.hit_single_snoops            0                       # Number of snoops hitting in the snoop filter with a single holder of the requested data.
system.tol2bus.snoop_filter.tot_requests          170                       # Total number of requests made to the snoop filter.
system.tol2bus.snoop_filter.tot_snoops              0                       # Total number of snoops made to the snoop filter.
system.clk_domain.clock                          1000                       # Clock period in ticks
system.cpu.dcache.demand_hits::.cpu.data           17                       # number of demand (read+write) hits
system.cpu.dcache.demand_hits::.switch_cpus.data       361512                       # number of demand (read+write) hits
system.cpu.dcache.demand_hits::total           361529                       # number of demand (read+write) hits
system.cpu.dcache.overall_hits::.cpu.data           17                       # number of overall hits
system.cpu.dcache.overall_hits::.switch_cpus.data       361512                       # number of overall hits
system.cpu.dcache.overall_hits::total          361529                       # number of overall hits
system.cpu.dcache.demand_misses::.cpu.data            5                       # number of demand (read+write) misses
system.cpu.dcache.demand_misses::.switch_cpus.data          357                       # number of demand (read+write) misses
system.cpu.dcache.demand_misses::total            362                       # number of demand (read+write) misses
system.cpu.dcache.overall_misses::.cpu.data            5                       # number of overall misses
system.cpu.dcache.overall_misses::.switch_cpus.data          357                       # number of overall misses
system.cpu.dcache.overall_misses::total           362                       # number of overall misses
system.cpu.dcache.demand_miss_latency::.switch_cpus.data     23511493                       # number of demand (read+write) miss cycles
system.cpu.dcache.demand_miss_latency::total     23511493                       # number of demand (read+write) miss cycles
system.cpu.dcache.overall_miss_latency::.switch_cpus.data     23511493                       # number of overall miss cycles
system.cpu.dcache.overall_miss_latency::total     23511493                       # number of overall miss cycles
system.cpu.dcache.demand_accesses::.cpu.data           22                       # number of demand (read+write) accesses
system.cpu.dcache.demand_accesses::.switch_cpus.data       361869                       # number of demand (read+write) accesses
system.cpu.dcache.demand_accesses::total       361891                       # number of demand (read+write) accesses
system.cpu.dcache.overall_accesses::.cpu.data           22                       # number of overall (read+write) accesses
system.cpu.dcache.overall_accesses::.switch_cpus.data       361869                       # number of overall (read+write) accesses
system.cpu.dcache.overall_accesses::total       361891                       # number of overall (read+write) accesses
system.cpu.dcache.demand_miss_rate::.cpu.data     0.227273                       # miss rate for demand accesses
system.cpu.dcache.demand_miss_rate::.switch_cpus.data     0.000987                       # miss rate for demand accesses
system.cpu.dcache.demand_miss_rate::total     0.001000                       # miss rate for demand accesses
system.cpu.dcache.overall_miss_rate::.cpu.data     0.227273                       # miss rate for overall accesses
system.cpu.dcache.overall_miss_rate::.switch_cpus.data     0.000987                       # miss rate for overall accesses
system.cpu.dcache.overall_miss_rate::total     0.001000                       # miss rate for overall accesses
system.cpu.dcache.demand_avg_miss_latency::.switch_cpus.data 65858.523810                       # average overall miss latency
system.cpu.dcache.demand_avg_miss_latency::total 64948.875691                       # average overall miss latency
system.cpu.dcache.overall_avg_miss_latency::.switch_cpus.data 65858.523810                       # average overall miss latency
system.cpu.dcache.overall_avg_miss_latency::total 64948.875691                       # average overall miss latency
system.cpu.dcache.blocked_cycles::no_mshrs            0                       # number of cycles access was blocked
system.cpu.dcache.blocked_cycles::no_targets            0                       # number of cycles access was blocked
system.cpu.dcache.blocked::no_mshrs                 0                       # number of cycles access was blocked
system.cpu.dcache.blocked::no_targets               0                       # number of cycles access was blocked
system.cpu.dcache.avg_blocked_cycles::no_mshrs          nan                       # average number of cycles each access was blocked
system.cpu.dcache.avg_blocked_cycles::no_targets          nan                       # average number of cycles each access was blocked
system.cpu.dcache.demand_mshr_hits::.switch_cpus.data          236                       # number of demand (read+write) MSHR hits
system.cpu.dcache.demand_mshr_hits::total          236                       # number of demand (read+write) MSHR hits
system.cpu.dcache.overall_mshr_hits::.switch_cpus.data          236                       # number of overall MSHR hits
system.cpu.dcache.overall_mshr_hits::total          236                       # number of overall MSHR hits
system.cpu.dcache.demand_mshr_misses::.switch_cpus.data          121                       # number of demand (read+write) MSHR misses
system.cpu.dcache.demand_mshr_misses::total          121                       # number of demand (read+write) MSHR misses
system.cpu.dcache.overall_mshr_misses::.switch_cpus.data          121                       # number of overall MSHR misses
system.cpu.dcache.overall_mshr_misses::total          121                       # number of overall MSHR misses
system.cpu.dcache.demand_mshr_miss_latency::.switch_cpus.data      7740695                       # number of demand (read+write) MSHR miss cycles
system.cpu.dcache.demand_mshr_miss_latency::total      7740695                       # number of demand (read+write) MSHR miss cycles
system.cpu.dcache.overall_mshr_miss_latency::.switch_cpus.data      7740695                       # number of overall MSHR miss cycles
system.cpu.dcache.overall_mshr_miss_latency::total      7740695                       # number of overall MSHR miss cycles
system.cpu.dcache.demand_mshr_miss_rate::.switch_cpus.data     0.000334                       # mshr miss rate for demand accesses
system.cpu.dcache.demand_mshr_miss_rate::total     0.000334                       # mshr miss rate for demand accesses
system.cpu.dcache.overall_mshr_miss_rate::.switch_cpus.data     0.000334                       # mshr miss rate for overall accesses
system.cpu.dcache.overall_mshr_miss_rate::total     0.000334                       # mshr miss rate for overall accesses
system.cpu.dcache.demand_avg_mshr_miss_latency::.switch_cpus.data 63972.685950                       # average overall mshr miss latency
system.cpu.dcache.demand_avg_mshr_miss_latency::total 63972.685950                       # average overall mshr miss latency
system.cpu.dcache.overall_avg_mshr_miss_latency::.switch_cpus.data 63972.685950                       # average overall mshr miss latency
system.cpu.dcache.overall_avg_mshr_miss_latency::total 63972.685950                       # average overall mshr miss latency
system.cpu.dcache.replacements                      0                       # number of replacements
system.cpu.dcache.ReadReq_hits::.cpu.data           13                       # number of ReadReq hits
system.cpu.dcache.ReadReq_hits::.switch_cpus.data       185599                       # number of ReadReq hits
system.cpu.dcache.ReadReq_hits::total          185612                       # number of ReadReq hits
system.cpu.dcache.ReadReq_misses::.cpu.data            4                       # number of ReadReq misses
system.cpu.dcache.ReadReq_misses::.switch_cpus.data          314                       # number of ReadReq misses
system.cpu.dcache.ReadReq_misses::total           318                       # number of ReadReq misses
system.cpu.dcache.ReadReq_miss_latency::.switch_cpus.data     21187831                       # number of ReadReq miss cycles
system.cpu.dcache.ReadReq_miss_latency::total     21187831                       # number of ReadReq miss cycles
system.cpu.dcache.ReadReq_accesses::.cpu.data           17                       # number of ReadReq accesses(hits+misses)
system.cpu.dcache.ReadReq_accesses::.switch_cpus.data       185913                       # number of ReadReq accesses(hits+misses)
system.cpu.dcache.ReadReq_accesses::total       185930                       # number of ReadReq accesses(hits+misses)
system.cpu.dcache.ReadReq_miss_rate::.cpu.data     0.235294                       # miss rate for ReadReq accesses
system.cpu.dcache.ReadReq_miss_rate::.switch_cpus.data     0.001689                       # miss rate for ReadReq accesses
system.cpu.dcache.ReadReq_miss_rate::total     0.001710                       # miss rate for ReadReq accesses
system.cpu.dcache.ReadReq_avg_miss_latency::.switch_cpus.data 67477.168790                       # average ReadReq miss latency
system.cpu.dcache.ReadReq_avg_miss_latency::total 66628.399371                       # average ReadReq miss latency
system.cpu.dcache.ReadReq_mshr_hits::.switch_cpus.data          215                       # number of ReadReq MSHR hits
system.cpu.dcache.ReadReq_mshr_hits::total          215                       # number of ReadReq MSHR hits
system.cpu.dcache.ReadReq_mshr_misses::.switch_cpus.data           99                       # number of ReadReq MSHR misses
system.cpu.dcache.ReadReq_mshr_misses::total           99                       # number of ReadReq MSHR misses
system.cpu.dcache.ReadReq_mshr_miss_latency::.switch_cpus.data      6563037                       # number of ReadReq MSHR miss cycles
system.cpu.dcache.ReadReq_mshr_miss_latency::total      6563037                       # number of ReadReq MSHR miss cycles
system.cpu.dcache.ReadReq_mshr_miss_rate::.switch_cpus.data     0.000533                       # mshr miss rate for ReadReq accesses
system.cpu.dcache.ReadReq_mshr_miss_rate::total     0.000532                       # mshr miss rate for ReadReq accesses
system.cpu.dcache.ReadReq_avg_mshr_miss_latency::.switch_cpus.data 66293.303030                       # average ReadReq mshr miss latency
system.cpu.dcache.ReadReq_avg_mshr_miss_latency::total 66293.303030                       # average ReadReq mshr miss latency
system.cpu.dcache.WriteReq_hits::.cpu.data            4                       # number of WriteReq hits
system.cpu.dcache.WriteReq_hits::.switch_cpus.data       175913                       # number of WriteReq hits
system.cpu.dcache.WriteReq_hits::total         175917                       # number of WriteReq hits
system.cpu.dcache.WriteReq_misses::.cpu.data            1                       # number of WriteReq misses
system.cpu.dcache.WriteReq_misses::.switch_cpus.data           43                       # number of WriteReq misses
system.cpu.dcache.WriteReq_misses::total           44                       # number of WriteReq misses
system.cpu.dcache.WriteReq_miss_latency::.switch_cpus.data      2323662                       # number of WriteReq miss cycles
system.cpu.dcache.WriteReq_miss_latency::total      2323662                       # number of WriteReq miss cycles
system.cpu.dcache.WriteReq_accesses::.cpu.data            5                       # number of WriteReq accesses(hits+misses)
system.cpu.dcache.WriteReq_accesses::.switch_cpus.data       175956                       # number of WriteReq accesses(hits+misses)
system.cpu.dcache.WriteReq_accesses::total       175961                       # number of WriteReq accesses(hits+misses)
system.cpu.dcache.WriteReq_miss_rate::.cpu.data     0.200000                       # miss rate for WriteReq accesses
system.cpu.dcache.WriteReq_miss_rate::.switch_cpus.data     0.000244                       # miss rate for WriteReq accesses
system.cpu.dcache.WriteReq_miss_rate::total     0.000250                       # miss rate for WriteReq accesses
system.cpu.dcache.WriteReq_avg_miss_latency::.switch_cpus.data 54038.651163                       # average WriteReq miss latency
system.cpu.dcache.WriteReq_avg_miss_latency::total 52810.500000                       # average WriteReq miss latency
system.cpu.dcache.WriteReq_mshr_hits::.switch_cpus.data           21                       # number of WriteReq MSHR hits
system.cpu.dcache.WriteReq_mshr_hits::total           21                       # number of WriteReq MSHR hits
system.cpu.dcache.WriteReq_mshr_misses::.switch_cpus.data           22                       # number of WriteReq MSHR misses
system.cpu.dcache.WriteReq_mshr_misses::total           22                       # number of WriteReq MSHR misses
system.cpu.dcache.WriteReq_mshr_miss_latency::.switch_cpus.data      1177658                       # number of WriteReq MSHR miss cycles
system.cpu.dcache.WriteReq_mshr_miss_latency::total      1177658                       # number of WriteReq MSHR miss cycles
system.cpu.dcache.WriteReq_mshr_miss_rate::.switch_cpus.data     0.000125                       # mshr miss rate for WriteReq accesses
system.cpu.dcache.WriteReq_mshr_miss_rate::total     0.000125                       # mshr miss rate for WriteReq accesses
system.cpu.dcache.WriteReq_avg_mshr_miss_latency::.switch_cpus.data 53529.909091                       # average WriteReq mshr miss latency
system.cpu.dcache.WriteReq_avg_mshr_miss_latency::total 53529.909091                       # average WriteReq mshr miss latency
system.cpu.dcache.power_state.pwrStateResidencyTicks::UNDEFINED 238077278311                       # Cumulative time (in ticks) in various power states
system.cpu.dcache.tags.tagsinuse            66.862799                       # Cycle average of tags in use
system.cpu.dcache.tags.total_refs                   0                       # Total number of references to valid blocks.
system.cpu.dcache.tags.sampled_refs                 0                       # Sample count of references to valid blocks.
system.cpu.dcache.tags.avg_refs                   nan                       # Average number of references to valid blocks.
system.cpu.dcache.tags.warmup_cycle      237907034055                       # Cycle when the warmup percentage was hit.
system.cpu.dcache.tags.occ_blocks::.cpu.data     4.999894                       # Average occupied blocks per requestor
system.cpu.dcache.tags.occ_blocks::.switch_cpus.data    61.862905                       # Average occupied blocks per requestor
system.cpu.dcache.tags.occ_percent::.cpu.data     0.019531                       # Average percentage of cache occupancy
system.cpu.dcache.tags.occ_percent::.switch_cpus.data     0.241652                       # Average percentage of cache occupancy
system.cpu.dcache.tags.occ_percent::total     0.261183                       # Average percentage of cache occupancy
system.cpu.dcache.tags.occ_task_id_blocks::1024          126                       # Occupied blocks per task id
system.cpu.dcache.tags.age_task_id_blocks_1024::0            6                       # Occupied blocks per task id
system.cpu.dcache.tags.age_task_id_blocks_1024::1           63                       # Occupied blocks per task id
system.cpu.dcache.tags.age_task_id_blocks_1024::2           57                       # Occupied blocks per task id
system.cpu.dcache.tags.occ_task_id_percent::1024     0.492188                       # Percentage of cache occupancy per task id
system.cpu.dcache.tags.tag_accesses           2895254                       # Number of tag accesses
system.cpu.dcache.tags.data_accesses          2895254                       # Number of data accesses
system.cpu.dcache.tags.power_state.pwrStateResidencyTicks::UNDEFINED 238077278311                       # Cumulative time (in ticks) in various power states
system.cpu.dtb.instHits                             0                       # ITB inst hits
system.cpu.dtb.instMisses                           0                       # ITB inst misses
system.cpu.dtb.readHits                             0                       # DTB read hits
system.cpu.dtb.readMisses                           0                       # DTB read misses
system.cpu.dtb.writeHits                            0                       # DTB write hits
system.cpu.dtb.writeMisses                          0                       # DTB write misses
system.cpu.dtb.inserts                              0                       # Number of times an entry is inserted into the TLB
system.cpu.dtb.flushTlb                             2                       # Number of times complete TLB was flushed
system.cpu.dtb.flushTlbMva                          0                       # Number of times TLB was flushed by MVA
system.cpu.dtb.flushTlbMvaAsid                      0                       # Number of times TLB was flushed by MVA & ASID
system.cpu.dtb.flushTlbAsid                         0                       # Number of times TLB was flushed by ASID
system.cpu.dtb.flushedEntries                       0                       # Number of entries that have been flushed from TLB
system.cpu.dtb.alignFaults                          0                       # Number of TLB faults due to alignment restrictions
system.cpu.dtb.prefetchFaults                       0                       # Number of TLB faults due to prefetch
system.cpu.dtb.domainFaults                         0                       # Number of TLB faults due to domain restrictions
system.cpu.dtb.permsFaults                          0                       # Number of TLB faults due to permissions restrictions
system.cpu.dtb.readAccesses                         0                       # DTB read accesses
system.cpu.dtb.writeAccesses                        0                       # DTB write accesses
system.cpu.dtb.instAccesses                         0                       # ITB inst accesses
system.cpu.dtb.hits                                 0                       # Total TLB (inst and data) hits
system.cpu.dtb.misses                               0                       # Total TLB (inst and data) misses
system.cpu.dtb.accesses                             0                       # Total TLB (inst and data) accesses
system.cpu.dtb.stage2_mmu.stage2_tlb.instHits            0                       # ITB inst hits
system.cpu.dtb.stage2_mmu.stage2_tlb.instMisses            0                       # ITB inst misses
system.cpu.dtb.stage2_mmu.stage2_tlb.readHits            0                       # DTB read hits
system.cpu.dtb.stage2_mmu.stage2_tlb.readMisses            0                       # DTB read misses
system.cpu.dtb.stage2_mmu.stage2_tlb.writeHits            0                       # DTB write hits
system.cpu.dtb.stage2_mmu.stage2_tlb.writeMisses            0                       # DTB write misses
system.cpu.dtb.stage2_mmu.stage2_tlb.inserts            0                       # Number of times an entry is inserted into the TLB
system.cpu.dtb.stage2_mmu.stage2_tlb.flushTlb            0                       # Number of times complete TLB was flushed
system.cpu.dtb.stage2_mmu.stage2_tlb.flushTlbMva            0                       # Number of times TLB was flushed by MVA
system.cpu.dtb.stage2_mmu.stage2_tlb.flushTlbMvaAsid            0                       # Number of times TLB was flushed by MVA & ASID
system.cpu.dtb.stage2_mmu.stage2_tlb.flushTlbAsid            0                       # Number of times TLB was flushed by ASID
system.cpu.dtb.stage2_mmu.stage2_tlb.flushedEntries            0                       # Number of entries that have been flushed from TLB
system.cpu.dtb.stage2_mmu.stage2_tlb.alignFaults            0                       # Number of TLB faults due to alignment restrictions
system.cpu.dtb.stage2_mmu.stage2_tlb.prefetchFaults            0                       # Number of TLB faults due to prefetch
system.cpu.dtb.stage2_mmu.stage2_tlb.domainFaults            0                       # Number of TLB faults due to domain restrictions
system.cpu.dtb.stage2_mmu.stage2_tlb.permsFaults            0                       # Number of TLB faults due to permissions restrictions
system.cpu.dtb.stage2_mmu.stage2_tlb.readAccesses            0                       # DTB read accesses
system.cpu.dtb.stage2_mmu.stage2_tlb.writeAccesses            0                       # DTB write accesses
system.cpu.dtb.stage2_mmu.stage2_tlb.instAccesses            0                       # ITB inst accesses
system.cpu.dtb.stage2_mmu.stage2_tlb.hits            0                       # Total TLB (inst and data) hits
system.cpu.dtb.stage2_mmu.stage2_tlb.misses            0                       # Total TLB (inst and data) misses
system.cpu.dtb.stage2_mmu.stage2_tlb.accesses            0                       # Total TLB (inst and data) accesses
system.cpu.dtb.stage2_mmu.stage2_tlb.walker.walks            0                       # Table walker walks requested
system.cpu.dtb.stage2_mmu.stage2_tlb.walker.requestOrigin_Requested::Data            0                       # Table walker requests started/completed, data/inst
system.cpu.dtb.stage2_mmu.stage2_tlb.walker.requestOrigin_Requested::Inst            0                       # Table walker requests started/completed, data/inst
system.cpu.dtb.stage2_mmu.stage2_tlb.walker.requestOrigin_Requested::total            0                       # Table walker requests started/completed, data/inst
system.cpu.dtb.stage2_mmu.stage2_tlb.walker.requestOrigin_Completed::Data            0                       # Table walker requests started/completed, data/inst
system.cpu.dtb.stage2_mmu.stage2_tlb.walker.requestOrigin_Completed::Inst            0                       # Table walker requests started/completed, data/inst
system.cpu.dtb.stage2_mmu.stage2_tlb.walker.requestOrigin_Completed::total            0                       # Table walker requests started/completed, data/inst
system.cpu.dtb.stage2_mmu.stage2_tlb.walker.requestOrigin::total            0                       # Table walker requests started/completed, data/inst
system.cpu.dtb.stage2_mmu.stage2_tlb.walker.power_state.pwrStateResidencyTicks::UNDEFINED 238077278311                       # Cumulative time (in ticks) in various power states
system.cpu.dtb.walker.walks                         0                       # Table walker walks requested
system.cpu.dtb.walker.requestOrigin_Requested::Data            0                       # Table walker requests started/completed, data/inst
system.cpu.dtb.walker.requestOrigin_Requested::Inst            0                       # Table walker requests started/completed, data/inst
system.cpu.dtb.walker.requestOrigin_Requested::total            0                       # Table walker requests started/completed, data/inst
system.cpu.dtb.walker.requestOrigin_Completed::Data            0                       # Table walker requests started/completed, data/inst
system.cpu.dtb.walker.requestOrigin_Completed::Inst            0                       # Table walker requests started/completed, data/inst
system.cpu.dtb.walker.requestOrigin_Completed::total            0                       # Table walker requests started/completed, data/inst
system.cpu.dtb.walker.requestOrigin::total            0                       # Table walker requests started/completed, data/inst
system.cpu.dtb.walker.power_state.pwrStateResidencyTicks::UNDEFINED 238077278311                       # Cumulative time (in ticks) in various power states
system.cpu.icache.demand_hits::.cpu.inst           21                       # number of demand (read+write) hits
system.cpu.icache.demand_hits::.switch_cpus.inst       180860                       # number of demand (read+write) hits
system.cpu.icache.demand_hits::total           180881                       # number of demand (read+write) hits
system.cpu.icache.overall_hits::.cpu.inst           21                       # number of overall hits
system.cpu.icache.overall_hits::.switch_cpus.inst       180860                       # number of overall hits
system.cpu.icache.overall_hits::total          180881                       # number of overall hits
system.cpu.icache.demand_misses::.cpu.inst            5                       # number of demand (read+write) misses
system.cpu.icache.demand_misses::.switch_cpus.inst           83                       # number of demand (read+write) misses
system.cpu.icache.demand_misses::total             88                       # number of demand (read+write) misses
system.cpu.icache.overall_misses::.cpu.inst            5                       # number of overall misses
system.cpu.icache.overall_misses::.switch_cpus.inst           83                       # number of overall misses
system.cpu.icache.overall_misses::total            88                       # number of overall misses
system.cpu.icache.demand_miss_latency::.switch_cpus.inst      5266515                       # number of demand (read+write) miss cycles
system.cpu.icache.demand_miss_latency::total      5266515                       # number of demand (read+write) miss cycles
system.cpu.icache.overall_miss_latency::.switch_cpus.inst      5266515                       # number of overall miss cycles
system.cpu.icache.overall_miss_latency::total      5266515                       # number of overall miss cycles
system.cpu.icache.demand_accesses::.cpu.inst           26                       # number of demand (read+write) accesses
system.cpu.icache.demand_accesses::.switch_cpus.inst       180943                       # number of demand (read+write) accesses
system.cpu.icache.demand_accesses::total       180969                       # number of demand (read+write) accesses
system.cpu.icache.overall_accesses::.cpu.inst           26                       # number of overall (read+write) accesses
system.cpu.icache.overall_accesses::.switch_cpus.inst       180943                       # number of overall (read+write) accesses
system.cpu.icache.overall_accesses::total       180969                       # number of overall (read+write) accesses
system.cpu.icache.demand_miss_rate::.cpu.inst     0.192308                       # miss rate for demand accesses
system.cpu.icache.demand_miss_rate::.switch_cpus.inst     0.000459                       # miss rate for demand accesses
system.cpu.icache.demand_miss_rate::total     0.000486                       # miss rate for demand accesses
system.cpu.icache.overall_miss_rate::.cpu.inst     0.192308                       # miss rate for overall accesses
system.cpu.icache.overall_miss_rate::.switch_cpus.inst     0.000459                       # miss rate for overall accesses
system.cpu.icache.overall_miss_rate::total     0.000486                       # miss rate for overall accesses
system.cpu.icache.demand_avg_miss_latency::.switch_cpus.inst 63451.987952                       # average overall miss latency
system.cpu.icache.demand_avg_miss_latency::total 59846.761364                       # average overall miss latency
system.cpu.icache.overall_avg_miss_latency::.switch_cpus.inst 63451.987952                       # average overall miss latency
system.cpu.icache.overall_avg_miss_latency::total 59846.761364                       # average overall miss latency
system.cpu.icache.blocked_cycles::no_mshrs            0                       # number of cycles access was blocked
system.cpu.icache.blocked_cycles::no_targets            0                       # number of cycles access was blocked
system.cpu.icache.blocked::no_mshrs                 0                       # number of cycles access was blocked
system.cpu.icache.blocked::no_targets               0                       # number of cycles access was blocked
system.cpu.icache.avg_blocked_cycles::no_mshrs          nan                       # average number of cycles each access was blocked
system.cpu.icache.avg_blocked_cycles::no_targets          nan                       # average number of cycles each access was blocked
system.cpu.icache.demand_mshr_hits::.switch_cpus.inst           44                       # number of demand (read+write) MSHR hits
system.cpu.icache.demand_mshr_hits::total           44                       # number of demand (read+write) MSHR hits
system.cpu.icache.overall_mshr_hits::.switch_cpus.inst           44                       # number of overall MSHR hits
system.cpu.icache.overall_mshr_hits::total           44                       # number of overall MSHR hits
system.cpu.icache.demand_mshr_misses::.switch_cpus.inst           39                       # number of demand (read+write) MSHR misses
system.cpu.icache.demand_mshr_misses::total           39                       # number of demand (read+write) MSHR misses
system.cpu.icache.overall_mshr_misses::.switch_cpus.inst           39                       # number of overall MSHR misses
system.cpu.icache.overall_mshr_misses::total           39                       # number of overall MSHR misses
system.cpu.icache.demand_mshr_miss_latency::.switch_cpus.inst      2750022                       # number of demand (read+write) MSHR miss cycles
system.cpu.icache.demand_mshr_miss_latency::total      2750022                       # number of demand (read+write) MSHR miss cycles
system.cpu.icache.overall_mshr_miss_latency::.switch_cpus.inst      2750022                       # number of overall MSHR miss cycles
system.cpu.icache.overall_mshr_miss_latency::total      2750022                       # number of overall MSHR miss cycles
system.cpu.icache.demand_mshr_miss_rate::.switch_cpus.inst     0.000216                       # mshr miss rate for demand accesses
system.cpu.icache.demand_mshr_miss_rate::total     0.000216                       # mshr miss rate for demand accesses
system.cpu.icache.overall_mshr_miss_rate::.switch_cpus.inst     0.000216                       # mshr miss rate for overall accesses
system.cpu.icache.overall_mshr_miss_rate::total     0.000216                       # mshr miss rate for overall accesses
system.cpu.icache.demand_avg_mshr_miss_latency::.switch_cpus.inst 70513.384615                       # average overall mshr miss latency
system.cpu.icache.demand_avg_mshr_miss_latency::total 70513.384615                       # average overall mshr miss latency
system.cpu.icache.overall_avg_mshr_miss_latency::.switch_cpus.inst 70513.384615                       # average overall mshr miss latency
system.cpu.icache.overall_avg_mshr_miss_latency::total 70513.384615                       # average overall mshr miss latency
system.cpu.icache.replacements                      0                       # number of replacements
system.cpu.icache.ReadReq_hits::.cpu.inst           21                       # number of ReadReq hits
system.cpu.icache.ReadReq_hits::.switch_cpus.inst       180860                       # number of ReadReq hits
system.cpu.icache.ReadReq_hits::total          180881                       # number of ReadReq hits
system.cpu.icache.ReadReq_misses::.cpu.inst            5                       # number of ReadReq misses
system.cpu.icache.ReadReq_misses::.switch_cpus.inst           83                       # number of ReadReq misses
system.cpu.icache.ReadReq_misses::total            88                       # number of ReadReq misses
system.cpu.icache.ReadReq_miss_latency::.switch_cpus.inst      5266515                       # number of ReadReq miss cycles
system.cpu.icache.ReadReq_miss_latency::total      5266515                       # number of ReadReq miss cycles
system.cpu.icache.ReadReq_accesses::.cpu.inst           26                       # number of ReadReq accesses(hits+misses)
system.cpu.icache.ReadReq_accesses::.switch_cpus.inst       180943                       # number of ReadReq accesses(hits+misses)
system.cpu.icache.ReadReq_accesses::total       180969                       # number of ReadReq accesses(hits+misses)
system.cpu.icache.ReadReq_miss_rate::.cpu.inst     0.192308                       # miss rate for ReadReq accesses
system.cpu.icache.ReadReq_miss_rate::.switch_cpus.inst     0.000459                       # miss rate for ReadReq accesses
system.cpu.icache.ReadReq_miss_rate::total     0.000486                       # miss rate for ReadReq accesses
system.cpu.icache.ReadReq_avg_miss_latency::.switch_cpus.inst 63451.987952                       # average ReadReq miss latency
system.cpu.icache.ReadReq_avg_miss_latency::total 59846.761364                       # average ReadReq miss latency
system.cpu.icache.ReadReq_mshr_hits::.switch_cpus.inst           44                       # number of ReadReq MSHR hits
system.cpu.icache.ReadReq_mshr_hits::total           44                       # number of ReadReq MSHR hits
system.cpu.icache.ReadReq_mshr_misses::.switch_cpus.inst           39                       # number of ReadReq MSHR misses
system.cpu.icache.ReadReq_mshr_misses::total           39                       # number of ReadReq MSHR misses
system.cpu.icache.ReadReq_mshr_miss_latency::.switch_cpus.inst      2750022                       # number of ReadReq MSHR miss cycles
system.cpu.icache.ReadReq_mshr_miss_latency::total      2750022                       # number of ReadReq MSHR miss cycles
system.cpu.icache.ReadReq_mshr_miss_rate::.switch_cpus.inst     0.000216                       # mshr miss rate for ReadReq accesses
system.cpu.icache.ReadReq_mshr_miss_rate::total     0.000216                       # mshr miss rate for ReadReq accesses
system.cpu.icache.ReadReq_avg_mshr_miss_latency::.switch_cpus.inst 70513.384615                       # average ReadReq mshr miss latency
system.cpu.icache.ReadReq_avg_mshr_miss_latency::total 70513.384615                       # average ReadReq mshr miss latency
system.cpu.icache.power_state.pwrStateResidencyTicks::UNDEFINED 238077278311                       # Cumulative time (in ticks) in various power states
system.cpu.icache.tags.tagsinuse            43.690918                       # Cycle average of tags in use
system.cpu.icache.tags.total_refs                   0                       # Total number of references to valid blocks.
system.cpu.icache.tags.sampled_refs                 0                       # Sample count of references to valid blocks.
system.cpu.icache.tags.avg_refs                   nan                       # Average number of references to valid blocks.
system.cpu.icache.tags.warmup_cycle      237907034055                       # Cycle when the warmup percentage was hit.
system.cpu.icache.tags.occ_blocks::.cpu.inst     4.999861                       # Average occupied blocks per requestor
system.cpu.icache.tags.occ_blocks::.switch_cpus.inst    38.691056                       # Average occupied blocks per requestor
system.cpu.icache.tags.occ_percent::.cpu.inst     0.009765                       # Average percentage of cache occupancy
system.cpu.icache.tags.occ_percent::.switch_cpus.inst     0.075568                       # Average percentage of cache occupancy
system.cpu.icache.tags.occ_percent::total     0.085334                       # Average percentage of cache occupancy
system.cpu.icache.tags.occ_task_id_blocks::1024           44                       # Occupied blocks per task id
system.cpu.icache.tags.age_task_id_blocks_1024::2           44                       # Occupied blocks per task id
system.cpu.icache.tags.occ_task_id_percent::1024     0.085938                       # Percentage of cache occupancy per task id
system.cpu.icache.tags.tag_accesses           1447796                       # Number of tag accesses
system.cpu.icache.tags.data_accesses          1447796                       # Number of data accesses
system.cpu.icache.tags.power_state.pwrStateResidencyTicks::UNDEFINED 238077278311                       # Cumulative time (in ticks) in various power states
system.cpu.itb.instHits                             0                       # ITB inst hits
system.cpu.itb.instMisses                           0                       # ITB inst misses
system.cpu.itb.readHits                             0                       # DTB read hits
system.cpu.itb.readMisses                           0                       # DTB read misses
system.cpu.itb.writeHits                            0                       # DTB write hits
system.cpu.itb.writeMisses                          0                       # DTB write misses
system.cpu.itb.inserts                              0                       # Number of times an entry is inserted into the TLB
system.cpu.itb.flushTlb                             2                       # Number of times complete TLB was flushed
system.cpu.itb.flushTlbMva                          0                       # Number of times TLB was flushed by MVA
system.cpu.itb.flushTlbMvaAsid                      0                       # Number of times TLB was flushed by MVA & ASID
system.cpu.itb.flushTlbAsid                         0                       # Number of times TLB was flushed by ASID
system.cpu.itb.flushedEntries                       0                       # Number of entries that have been flushed from TLB
system.cpu.itb.alignFaults                          0                       # Number of TLB faults due to alignment restrictions
system.cpu.itb.prefetchFaults                       0                       # Number of TLB faults due to prefetch
system.cpu.itb.domainFaults                         0                       # Number of TLB faults due to domain restrictions
system.cpu.itb.permsFaults                          0                       # Number of TLB faults due to permissions restrictions
system.cpu.itb.readAccesses                         0                       # DTB read accesses
system.cpu.itb.writeAccesses                        0                       # DTB write accesses
system.cpu.itb.instAccesses                         0                       # ITB inst accesses
system.cpu.itb.hits                                 0                       # Total TLB (inst and data) hits
system.cpu.itb.misses                               0                       # Total TLB (inst and data) misses
system.cpu.itb.accesses                             0                       # Total TLB (inst and data) accesses
system.cpu.itb.stage2_mmu.stage2_tlb.instHits            0                       # ITB inst hits
system.cpu.itb.stage2_mmu.stage2_tlb.instMisses            0                       # ITB inst misses
system.cpu.itb.stage2_mmu.stage2_tlb.readHits            0                       # DTB read hits
system.cpu.itb.stage2_mmu.stage2_tlb.readMisses            0                       # DTB read misses
system.cpu.itb.stage2_mmu.stage2_tlb.writeHits            0                       # DTB write hits
system.cpu.itb.stage2_mmu.stage2_tlb.writeMisses            0                       # DTB write misses
system.cpu.itb.stage2_mmu.stage2_tlb.inserts            0                       # Number of times an entry is inserted into the TLB
system.cpu.itb.stage2_mmu.stage2_tlb.flushTlb            0                       # Number of times complete TLB was flushed
system.cpu.itb.stage2_mmu.stage2_tlb.flushTlbMva            0                       # Number of times TLB was flushed by MVA
system.cpu.itb.stage2_mmu.stage2_tlb.flushTlbMvaAsid            0                       # Number of times TLB was flushed by MVA & ASID
system.cpu.itb.stage2_mmu.stage2_tlb.flushTlbAsid            0                       # Number of times TLB was flushed by ASID
system.cpu.itb.stage2_mmu.stage2_tlb.flushedEntries            0                       # Number of entries that have been flushed from TLB
system.cpu.itb.stage2_mmu.stage2_tlb.alignFaults            0                       # Number of TLB faults due to alignment restrictions
system.cpu.itb.stage2_mmu.stage2_tlb.prefetchFaults            0                       # Number of TLB faults due to prefetch
system.cpu.itb.stage2_mmu.stage2_tlb.domainFaults            0                       # Number of TLB faults due to domain restrictions
system.cpu.itb.stage2_mmu.stage2_tlb.permsFaults            0                       # Number of TLB faults due to permissions restrictions
system.cpu.itb.stage2_mmu.stage2_tlb.readAccesses            0                       # DTB read accesses
system.cpu.itb.stage2_mmu.stage2_tlb.writeAccesses            0                       # DTB write accesses
system.cpu.itb.stage2_mmu.stage2_tlb.instAccesses            0                       # ITB inst accesses
system.cpu.itb.stage2_mmu.stage2_tlb.hits            0                       # Total TLB (inst and data) hits
system.cpu.itb.stage2_mmu.stage2_tlb.misses            0                       # Total TLB (inst and data) misses
system.cpu.itb.stage2_mmu.stage2_tlb.accesses            0                       # Total TLB (inst and data) accesses
system.cpu.itb.stage2_mmu.stage2_tlb.walker.walks            0                       # Table walker walks requested
system.cpu.itb.stage2_mmu.stage2_tlb.walker.requestOrigin_Requested::Data            0                       # Table walker requests started/completed, data/inst
system.cpu.itb.stage2_mmu.stage2_tlb.walker.requestOrigin_Requested::Inst            0                       # Table walker requests started/completed, data/inst
system.cpu.itb.stage2_mmu.stage2_tlb.walker.requestOrigin_Requested::total            0                       # Table walker requests started/completed, data/inst
system.cpu.itb.stage2_mmu.stage2_tlb.walker.requestOrigin_Completed::Data            0                       # Table walker requests started/completed, data/inst
system.cpu.itb.stage2_mmu.stage2_tlb.walker.requestOrigin_Completed::Inst            0                       # Table walker requests started/completed, data/inst
system.cpu.itb.stage2_mmu.stage2_tlb.walker.requestOrigin_Completed::total            0                       # Table walker requests started/completed, data/inst
system.cpu.itb.stage2_mmu.stage2_tlb.walker.requestOrigin::total            0                       # Table walker requests started/completed, data/inst
system.cpu.itb.stage2_mmu.stage2_tlb.walker.power_state.pwrStateResidencyTicks::UNDEFINED 238077278311                       # Cumulative time (in ticks) in various power states
system.cpu.itb.walker.walks                         0                       # Table walker walks requested
system.cpu.itb.walker.requestOrigin_Requested::Data            0                       # Table walker requests started/completed, data/inst
system.cpu.itb.walker.requestOrigin_Requested::Inst            0                       # Table walker requests started/completed, data/inst
system.cpu.itb.walker.requestOrigin_Requested::total            0                       # Table walker requests started/completed, data/inst
system.cpu.itb.walker.requestOrigin_Completed::Data            0                       # Table walker requests started/completed, data/inst
system.cpu.itb.walker.requestOrigin_Completed::Inst            0                       # Table walker requests started/completed, data/inst
system.cpu.itb.walker.requestOrigin_Completed::total            0                       # Table walker requests started/completed, data/inst
system.cpu.itb.walker.requestOrigin::total            0                       # Table walker requests started/completed, data/inst
system.cpu.itb.walker.power_state.pwrStateResidencyTicks::UNDEFINED 238077278311                       # Cumulative time (in ticks) in various power states
system.cpu.power_state.numTransitions               1                       # Number of power state transitions
system.cpu.power_state.pwrStateResidencyTicks::ON 237907043600                       # Cumulative time (in ticks) in various power states
system.cpu.power_state.pwrStateResidencyTicks::OFF    170234711                       # Cumulative time (in ticks) in various power states
system.cpu.thread_0.numInsts                        0                       # Number of Instructions committed
system.cpu.thread_0.numOps                          0                       # Number of Ops committed
system.cpu.thread_0.numMemRefs                      0                       # Number of Memory References
system.cpu_clk_domain.clock                       323                       # Clock period in ticks
system.cpu_voltage_domain.voltage                   1                       # Voltage in Volts
system.l2.demand_hits::.switch_cpus.data           24                       # number of demand (read+write) hits
system.l2.demand_hits::total                       24                       # number of demand (read+write) hits
system.l2.overall_hits::.switch_cpus.data           24                       # number of overall hits
system.l2.overall_hits::total                      24                       # number of overall hits
system.l2.demand_misses::.cpu.inst                  5                       # number of demand (read+write) misses
system.l2.demand_misses::.cpu.data                  5                       # number of demand (read+write) misses
system.l2.demand_misses::.switch_cpus.inst           39                       # number of demand (read+write) misses
system.l2.demand_misses::.switch_cpus.data           97                       # number of demand (read+write) misses
system.l2.demand_misses::total                    146                       # number of demand (read+write) misses
system.l2.overall_misses::.cpu.inst                 5                       # number of overall misses
system.l2.overall_misses::.cpu.data                 5                       # number of overall misses
[...]
system.switch_cpus.dtb.walker.requestOrigin::total            0                       # Table walker requests started/completed, data/inst
system.switch_cpus.dtb.walker.power_state.pwrStateResidencyTicks::UNDEFINED   2407904276                       # Cumulative time (in ticks) in various power states
system.switch_cpus.fetch.icacheStallCycles      1816348                       # Number of cycles fetch is stalled on an Icache miss
system.switch_cpus.fetch.insts               10263106                       # Number of instructions fetch has processed
system.switch_cpus.fetch.branches             1481667                       # Number of branches that fetch encountered
system.switch_cpus.fetch.predictedBranches      1251509                       # Number of branches that fetch has predicted taken
system.switch_cpus.fetch.cycles               5628577                       # Number of cycles fetch has run and was not squashing or blocked
system.switch_cpus.fetch.squashCycles            6982                       # Number of cycles fetch has spent squashing
system.switch_cpus.fetch.miscStallCycles            3                       # Number of cycles fetch has spent waiting on interrupts,or bad addresses, or out of MSHRs
system.switch_cpus.fetch.pendingTrapStallCycles           24                       # Number of stall cycles due to pending traps
system.switch_cpus.fetch.cacheLines           1813305                       # Number of cache lines fetched
system.switch_cpus.fetch.icacheSquashes          1426                       # Number of outstanding Icache misses that were squashed
system.switch_cpus.fetch.nisnDist::samples      7448443                       # Number of instructions fetched each cycle (Total)
system.switch_cpus.fetch.nisnDist::mean      1.400233                       # Number of instructions fetched each cycle (Total)
system.switch_cpus.fetch.nisnDist::stdev     2.538077                       # Number of instructions fetched each cycle (Total)
system.switch_cpus.fetch.nisnDist::underflows            0      0.00%      0.00% # Number of instructions fetched each cycle (Total)
system.switch_cpus.fetch.nisnDist::0          5292362     71.05%     71.05% # Number of instructions fetched each cycle (Total)
system.switch_cpus.fetch.nisnDist::1           334820      4.50%     75.55% # Number of instructions fetched each cycle (Total)
system.switch_cpus.fetch.nisnDist::2           136578      1.83%     77.38% # Number of instructions fetched each cycle (Total)
system.switch_cpus.fetch.nisnDist::3           166260      2.23%     79.61% # Number of instructions fetched each cycle (Total)
system.switch_cpus.fetch.nisnDist::4           234926      3.15%     82.77% # Number of instructions fetched each cycle (Total)
system.switch_cpus.fetch.nisnDist::5           273914      3.68%     86.45% # Number of instructions fetched each cycle (Total)
system.switch_cpus.fetch.nisnDist::6           467548      6.28%     92.72% # Number of instructions fetched each cycle (Total)
system.switch_cpus.fetch.nisnDist::7           128045      1.72%     94.44% # Number of instructions fetched each cycle (Total)
system.switch_cpus.fetch.nisnDist::8           413990      5.56%    100.00% # Number of instructions fetched each cycle (Total)
system.switch_cpus.fetch.nisnDist::overflows            0      0.00%    100.00% # Number of instructions fetched each cycle (Total)
system.switch_cpus.fetch.nisnDist::min_value            0                       # Number of instructions fetched each cycle (Total)
system.switch_cpus.fetch.nisnDist::max_value            8                       # Number of instructions fetched each cycle (Total)
system.switch_cpus.fetch.nisnDist::total      7448443                       # Number of instructions fetched each cycle (Total)
system.switch_cpus.fetch.branchRate          0.198753                       # Number of branch fetches per cycle
system.switch_cpus.fetch.rate                1.376709                       # Number of inst fetches per cycle
system.switch_cpus.itb.instHits                     0                       # ITB inst hits
system.switch_cpus.itb.instMisses                   0                       # ITB inst misses
system.switch_cpus.itb.readHits                     0                       # DTB read hits
system.switch_cpus.itb.readMisses                   0                       # DTB read misses
system.switch_cpus.itb.writeHits                    0                       # DTB write hits
system.switch_cpus.itb.writeMisses                  0                       # DTB write misses
system.switch_cpus.itb.inserts                      0                       # Number of times an entry is inserted into the TLB
system.switch_cpus.itb.flushTlb                     0                       # Number of times complete TLB was flushed
system.switch_cpus.itb.flushTlbMva                  0                       # Number of times TLB was flushed by MVA
system.switch_cpus.itb.flushTlbMvaAsid              0                       # Number of times TLB was flushed by MVA & ASID
system.switch_cpus.itb.flushTlbAsid                 0                       # Number of times TLB was flushed by ASID
system.switch_cpus.itb.flushedEntries               0                       # Number of entries that have been flushed from TLB
system.switch_cpus.itb.alignFaults                  0                       # Number of TLB faults due to alignment restrictions
system.switch_cpus.itb.prefetchFaults               0                       # Number of TLB faults due to prefetch
system.switch_cpus.itb.domainFaults                 0                       # Number of TLB faults due to domain restrictions
system.switch_cpus.itb.permsFaults                  0                       # Number of TLB faults due to permissions restrictions
system.switch_cpus.itb.readAccesses                 0                       # DTB read accesses
system.switch_cpus.itb.writeAccesses                0                       # DTB write accesses
system.switch_cpus.itb.instAccesses                 0                       # ITB inst accesses
system.switch_cpus.itb.hits                         0                       # Total TLB (inst and data) hits
system.switch_cpus.itb.misses                       0                       # Total TLB (inst and data) misses
system.switch_cpus.itb.accesses                     0                       # Total TLB (inst and data) accesses
system.switch_cpus.itb.stage2_mmu.stage2_tlb.instHits            0                       # ITB inst hits
system.switch_cpus.itb.stage2_mmu.stage2_tlb.instMisses            0                       # ITB inst misses
system.switch_cpus.itb.stage2_mmu.stage2_tlb.readHits            0                       # DTB read hits
system.switch_cpus.itb.stage2_mmu.stage2_tlb.readMisses            0                       # DTB read misses
system.switch_cpus.itb.stage2_mmu.stage2_tlb.writeHits            0                       # DTB write hits
system.switch_cpus.itb.stage2_mmu.stage2_tlb.writeMisses            0                       # DTB write misses
system.switch_cpus.itb.stage2_mmu.stage2_tlb.inserts            0                       # Number of times an entry is inserted into the TLB
system.switch_cpus.itb.stage2_mmu.stage2_tlb.flushTlb            0                       # Number of times complete TLB was flushed
system.switch_cpus.itb.stage2_mmu.stage2_tlb.flushTlbMva            0                       # Number of times TLB was flushed by MVA
system.switch_cpus.itb.stage2_mmu.stage2_tlb.flushTlbMvaAsid            0                       # Number of times TLB was flushed by MVA & ASID
system.switch_cpus.itb.stage2_mmu.stage2_tlb.flushTlbAsid            0                       # Number of times TLB was flushed by ASID
system.switch_cpus.itb.stage2_mmu.stage2_tlb.flushedEntries            0                       # Number of entries that have been flushed from TLB
system.switch_cpus.itb.stage2_mmu.stage2_tlb.alignFaults            0                       # Number of TLB faults due to alignment restrictions
system.switch_cpus.itb.stage2_mmu.stage2_tlb.prefetchFaults            0                       # Number of TLB faults due to prefetch
system.switch_cpus.itb.stage2_mmu.stage2_tlb.domainFaults            0                       # Number of TLB faults due to domain restrictions
system.switch_cpus.itb.stage2_mmu.stage2_tlb.permsFaults            0                       # Number of TLB faults due to permissions restrictions
system.switch_cpus.itb.stage2_mmu.stage2_tlb.readAccesses            0                       # DTB read accesses
system.switch_cpus.itb.stage2_mmu.stage2_tlb.writeAccesses            0                       # DTB write accesses
system.switch_cpus.itb.stage2_mmu.stage2_tlb.instAccesses            0                       # ITB inst accesses
system.switch_cpus.itb.stage2_mmu.stage2_tlb.hits            0                       # Total TLB (inst and data) hits
system.switch_cpus.itb.stage2_mmu.stage2_tlb.misses            0                       # Total TLB (inst and data) misses
system.switch_cpus.itb.stage2_mmu.stage2_tlb.accesses            0                       # Total TLB (inst and data) accesses
system.switch_cpus.itb.stage2_mmu.stage2_tlb.walker.walks            0                       # Table walker walks requested
system.switch_cpus.itb.stage2_mmu.stage2_tlb.walker.requestOrigin_Requested::Data            0                       # Table walker requests started/completed, data/inst
system.switch_cpus.itb.stage2_mmu.stage2_tlb.walker.requestOrigin_Requested::Inst            0                       # Table walker requests started/completed, data/inst
system.switch_cpus.itb.stage2_mmu.stage2_tlb.walker.requestOrigin_Requested::total            0                       # Table walker requests started/completed, data/inst
system.switch_cpus.itb.stage2_mmu.stage2_tlb.walker.requestOrigin_Completed::Data            0                       # Table walker requests started/completed, data/inst
system.switch_cpus.itb.stage2_mmu.stage2_tlb.walker.requestOrigin_Completed::Inst            0                       # Table walker requests started/completed, data/inst
system.switch_cpus.itb.stage2_mmu.stage2_tlb.walker.requestOrigin_Completed::total            0                       # Table walker requests started/completed, data/inst
system.switch_cpus.itb.stage2_mmu.stage2_tlb.walker.requestOrigin::total            0                       # Table walker requests started/completed, data/inst
system.switch_cpus.itb.stage2_mmu.stage2_tlb.walker.power_state.pwrStateResidencyTicks::UNDEFINED   2407904276                       # Cumulative time (in ticks) in various power states
system.switch_cpus.itb.walker.walks                 0                       # Table walker walks requested
system.switch_cpus.itb.walker.requestOrigin_Requested::Data            0                       # Table walker requests started/completed, data/inst
system.switch_cpus.itb.walker.requestOrigin_Requested::Inst            0                       # Table walker requests started/completed, data/inst
system.switch_cpus.itb.walker.requestOrigin_Requested::total            0                       # Table walker requests started/completed, data/inst
system.switch_cpus.itb.walker.requestOrigin_Completed::Data            0                       # Table walker requests started/completed, data/inst
system.switch_cpus.itb.walker.requestOrigin_Completed::Inst            0                       # Table walker requests started/completed, data/inst
system.switch_cpus.itb.walker.requestOrigin_Completed::total            0                       # Table walker requests started/completed, data/inst
system.switch_cpus.itb.walker.requestOrigin::total            0                       # Table walker requests started/completed, data/inst
system.switch_cpus.itb.walker.power_state.pwrStateResidencyTicks::UNDEFINED   2407904276                       # Cumulative time (in ticks) in various power states
system.switch_cpus.lsq0.forwLoads             1640188                       # Number of loads that had data forwarded from stores
system.switch_cpus.lsq0.squashedLoads           66073                       # Number of loads squashed
system.switch_cpus.lsq0.ignoredResponses          134                       # Number of memory responses ignored because the instruction is squashed
system.switch_cpus.lsq0.memOrderViolation          230                       # Number of memory ordering violations
system.switch_cpus.lsq0.squashedStores          48503                       # Number of stores squashed
system.switch_cpus.lsq0.rescheduledLoads        19563                       # Number of loads that were rescheduled
system.switch_cpus.lsq0.blockedByCache             29                       # Number of times an access to memory failed due to the cache being blocked
system.switch_cpus.power_state.pwrStateResidencyTicks::OFF   2407904276                       # Cumulative time (in ticks) in various power states
system.switch_cpus.rename.squashCycles           3453                       # Number of cycles rename is squashing
system.switch_cpus.rename.idleCycles          1312609                       # Number of cycles rename is idle
system.switch_cpus.rename.blockCycles          623737                       # Number of cycles rename is blocking
system.switch_cpus.rename.serializeStallCycles          142                       # count of cycles rename stalledfor serializing inst
system.switch_cpus.rename.runCycles           1762163                       # Number of cycles rename is running
system.switch_cpus.rename.unblockCycles       3746339                       # Number of cycles rename is unblocking
system.switch_cpus.rename.renamedInsts       10381871                       # Number of instructions processed by rename
system.switch_cpus.rename.IQFullEvents          25624                       # Number of times rename has blocked due to IQ full
system.switch_cpus.rename.LQFullEvents        3608473                       # Number of times rename has blocked due to LQ full
system.switch_cpus.rename.SQFullEvents          59688                       # Number of times rename has blocked due to SQ full
system.switch_cpus.rename.renamedOperands     10309393                       # Number of destination operands rename has renamed
system.switch_cpus.rename.lookups            13618933                       # Number of register rename lookups that rename has made
system.switch_cpus.rename.intLookups         11509086                       # Number of integer rename lookups
system.switch_cpus.rename.vecLookups               49                       # Number of vector rename lookups
system.switch_cpus.rename.committedMaps      10087960                       # Number of HB maps that are committed
system.switch_cpus.rename.undoneMaps           221416                       # Number of HB maps that are undone due to squashing
system.switch_cpus.rename.serializing               9                       # count of serializing insts renamed
system.switch_cpus.rename.tempSerializing            2                       # count of temporary serializing insts renamed
system.switch_cpus.rename.skidInsts           1117356                       # count of insts added to the skid buffer
system.switch_cpus.rob.reads                 16998282                       # The number of ROB reads
system.switch_cpus.rob.writes                20756579                       # The number of ROB writes
system.switch_cpus.thread_0.numInsts          9999994                       # Number of Instructions committed
system.switch_cpus.thread_0.numOps           10128144                       # Number of Ops committed
system.switch_cpus.thread_0.numMemRefs              0                       # Number of Memory References
system.tol2bus.trans_dist::ReadResp            103736                       # Transaction distribution
system.tol2bus.trans_dist::WritebackDirty        82880                       # Transaction distribution
system.tol2bus.trans_dist::CleanEvict           36531                       # Transaction distribution
system.tol2bus.trans_dist::HardPFReq            19997                       # Transaction distribution
system.tol2bus.trans_dist::ReadExReq             1056                       # Transaction distribution
system.tol2bus.trans_dist::ReadExResp            1056                       # Transaction distribution
system.tol2bus.trans_dist::ReadCleanReq            47                       # Transaction distribution
system.tol2bus.trans_dist::ReadSharedReq       103690                       # Transaction distribution
system.tol2bus.pkt_count_system.cpu.icache.mem_side_port::system.l2.cpu_side_port           94                       # Packet count per connected requestor and responder (bytes)
system.tol2bus.pkt_count_system.cpu.dcache.mem_side_port::system.l2.cpu_side_port       314106                       # Packet count per connected requestor and responder (bytes)
system.tol2bus.pkt_count::total                314200                       # Packet count per connected requestor and responder (bytes)
system.tol2bus.pkt_size_system.cpu.icache.mem_side_port::system.l2.cpu_side_port         6016                       # Cumulative packet size per connected requestor and responder (bytes)
system.tol2bus.pkt_size_system.cpu.dcache.mem_side_port::system.l2.cpu_side_port     24008960                       # Cumulative packet size per connected requestor and responder (bytes)
system.tol2bus.pkt_size::total               24014976                       # Cumulative packet size per connected requestor and responder (bytes)
system.tol2bus.snoops                           34793                       # Total snoops (count)
system.tol2bus.snoopTraffic                      7040                       # Total snoop traffic (bytes)
system.tol2bus.snoop_fanout::samples           139586                       # Request fanout histogram
system.tol2bus.snoop_fanout::mean            0.000681                       # Request fanout histogram
system.tol2bus.snoop_fanout::stdev           0.026079                       # Request fanout histogram
system.tol2bus.snoop_fanout::underflows             0      0.00%      0.00% # Request fanout histogram
system.tol2bus.snoop_fanout::0                 139491     99.93%     99.93% # Request fanout histogram
system.tol2bus.snoop_fanout::1                     95      0.07%    100.00% # Request fanout histogram
system.tol2bus.snoop_fanout::2                      0      0.00%    100.00% # Request fanout histogram
system.tol2bus.snoop_fanout::overflows              0      0.00%    100.00% # Request fanout histogram
system.tol2bus.snoop_fanout::min_value              0                       # Request fanout histogram
system.tol2bus.snoop_fanout::max_value              1                       # Request fanout histogram
system.tol2bus.snoop_fanout::total             139586                       # Request fanout histogram
system.tol2bus.power_state.pwrStateResidencyTicks::UNDEFINED   2407904276                       # Cumulative time (in ticks) in various power states
system.tol2bus.reqLayer0.occupancy          174648684                       # Layer occupancy (ticks)
system.tol2bus.reqLayer0.utilization              7.3                       # Layer utilization (%)
system.tol2bus.respLayer0.occupancy             75905                       # Layer occupancy (ticks)
system.tol2bus.respLayer0.utilization             0.0                       # Layer utilization (%)
system.tol2bus.respLayer1.occupancy         169163175                       # Layer occupancy (ticks)
system.tol2bus.respLayer1.utilization             7.0                       # Layer utilization (%)
system.voltage_domain.voltage                       1                       # Voltage in Volts

---------- End Simulation Statistics   ----------
