
---------- Begin Simulation Statistics ----------
final_tick                               442023344298                       # Number of ticks from beginning of simulation (restored from checkpoints and never reset)
host_inst_rate                                 373151                       # Simulator instruction rate (inst/s)
host_mem_usage                               16965264                       # Number of bytes of host memory used
host_op_rate                                   373144                       # Simulator op (including micro ops) rate (op/s)
host_seconds                                     2.68                       # Real time elapsed on the host
host_tick_rate                               89353498                       # Simulator tick rate (ticks/s)
sim_freq                                 1000000000000                       # Frequency of simulated ticks
sim_insts                                     1000031                       # Number of instructions simulated
sim_ops                                       1000032                       # Number of ops (including micro ops) simulated
sim_seconds                                  0.000239                       # Number of seconds simulated
sim_ticks                                   239469898                       # Number of ticks simulated
system.cpu.Branches                                 2                       # Number of branches fetched
system.cpu.committedInsts                          30                       # Number of instructions committed
system.cpu.committedOps                            30                       # Number of ops (including micro ops) committed
system.cpu.idle_fraction                            0                       # Percentage of idle cycles
system.cpu.not_idle_fraction                        1                       # Percentage of non-idle cycles
system.cpu.numCycles                               30                       # number of cpu cycles simulated
system.cpu.numWorkItemsCompleted                    0                       # number of work items this cpu completed
system.cpu.numWorkItemsStarted                      0                       # number of work items this cpu started
system.cpu.num_busy_cycles                         30                       # Number of busy cycles
system.cpu.num_cc_register_reads                    6                       # number of times the CC registers were read
system.cpu.num_cc_register_writes                   6                       # number of times the CC registers were written
system.cpu.num_conditional_control_insts            2                       # number of instructions that are conditional controls
system.cpu.num_fp_alu_accesses                      0                       # Number of float alu accesses
system.cpu.num_fp_insts                             0                       # number of float instructions
system.cpu.num_fp_register_reads                    0                       # number of times the floating registers were read
system.cpu.num_fp_register_writes                   0                       # number of times the floating registers were written
system.cpu.num_func_calls                           0                       # number of times a function call or return occured
system.cpu.num_idle_cycles                          0                       # Number of idle cycles
system.cpu.num_int_alu_accesses                    28                       # Number of integer alu accesses
system.cpu.num_int_insts                           28                       # number of integer instructions
system.cpu.num_int_register_reads                  36                       # number of times the integer registers were read
system.cpu.num_int_register_writes                 25                       # number of times the integer registers were written
system.cpu.num_load_insts                          13                       # Number of load instructions
system.cpu.num_mem_refs                            16                       # number of memory refs
system.cpu.num_store_insts                          3                       # Number of store instructions
system.cpu.num_vec_alu_accesses                     0                       # Number of vector alu accesses
system.cpu.num_vec_insts                            0                       # number of vector instructions
system.cpu.num_vec_register_reads                   0                       # number of times the vector registers were read
system.cpu.num_vec_register_writes                  0                       # number of times the vector registers were written
system.cpu.op_class::No_OpClass                     0      0.00%      0.00% # Class of executed instruction
system.cpu.op_class::IntAlu                        14     46.67%     46.67% # Class of executed instruction
system.cpu.op_class::IntMult                        0      0.00%     46.67% # Class of executed instruction
system.cpu.op_class::IntDiv                         0      0.00%     46.67% # Class of executed instruction
system.cpu.op_class::FloatAdd                       0      0.00%     46.67% # Class of executed instruction
system.cpu.op_class::FloatCmp                       0      0.00%     46.67% # Class of executed instruction
system.cpu.op_class::FloatCvt                       0      0.00%     46.67% # Class of executed instruction
system.cpu.op_class::FloatMult                      0      0.00%     46.67% # Class of executed instruction
system.cpu.op_class::FloatMultAcc                   0      0.00%     46.67% # Class of executed instruction
system.cpu.op_class::FloatDiv                       0      0.00%     46.67% # Class of executed instruction
system.cpu.op_class::FloatMisc                      0      0.00%     46.67% # Class of executed instruction
system.cpu.op_class::FloatSqrt                      0      0.00%     46.67% # Class of executed instruction
system.cpu.op_class::SimdAdd                        0      0.00%     46.67% # Class of executed instruction
system.cpu.op_class::SimdAddAcc                     0      0.00%     46.67% # Class of executed instruction
system.cpu.op_class::SimdAlu                        0      0.00%     46.67% # Class of executed instruction
system.cpu.op_class::SimdCmp                        0      0.00%     46.67% # Class of executed instruction
system.cpu.op_class::SimdCvt                        0      0.00%     46.67% # Class of executed instruction
system.cpu.op_class::SimdMisc                       0      0.00%     46.67% # Class of executed instruction
system.cpu.op_class::SimdMult                       0      0.00%     46.67% # Class of executed instruction
system.cpu.op_class::SimdMultAcc                    0      0.00%     46.67% # Class of executed instruction
system.cpu.op_class::SimdShift                      0      0.00%     46.67% # Class of executed instruction
system.cpu.op_class::SimdShiftAcc                   0      0.00%     46.67% # Class of executed instruction
system.cpu.op_class::SimdDiv                        0      0.00%     46.67% # Class of executed instruction
system.cpu.op_class::SimdSqrt                       0      0.00%     46.67% # Class of executed instruction
system.cpu.op_class::SimdFloatAdd                   0      0.00%     46.67% # Class of executed instruction
system.cpu.op_class::SimdFloatAlu                   0      0.00%     46.67% # Class of executed instruction
system.cpu.op_class::SimdFloatCmp                   0      0.00%     46.67% # Class of executed instruction
system.cpu.op_class::SimdFloatCvt                   0      0.00%     46.67% # Class of executed instruction
system.cpu.op_class::SimdFloatDiv                   0      0.00%     46.67% # Class of executed instruction
system.cpu.op_class::SimdFloatMisc                  0      0.00%     46.67% # Class of executed instruction
system.cpu.op_class::SimdFloatMult                  0      0.00%     46.67% # Class of executed instruction
system.cpu.op_class::SimdFloatMultAcc               0      0.00%     46.67% # Class of executed instruction
system.cpu.op_class::SimdFloatSqrt                  0      0.00%     46.67% # Class of executed instruction
system.cpu.op_class::SimdReduceAdd                  0      0.00%     46.67% # Class of executed instruction
system.cpu.op_class::SimdReduceAlu                  0      0.00%     46.67% # Class of executed instruction
system.cpu.op_class::SimdReduceCmp                  0      0.00%     46.67% # Class of executed instruction
system.cpu.op_class::SimdFloatReduceAdd             0      0.00%     46.67% # Class of executed instruction
system.cpu.op_class::SimdFloatReduceCmp             0      0.00%     46.67% # Class of executed instruction
system.cpu.op_class::SimdAes                        0      0.00%     46.67% # Class of executed instruction
system.cpu.op_class::SimdAesMix                     0      0.00%     46.67% # Class of executed instruction
system.cpu.op_class::SimdSha1Hash                   0      0.00%     46.67% # Class of executed instruction
system.cpu.op_class::SimdSha1Hash2                  0      0.00%     46.67% # Class of executed instruction
system.cpu.op_class::SimdSha256Hash                 0      0.00%     46.67% # Class of executed instruction
system.cpu.op_class::SimdSha256Hash2                0      0.00%     46.67% # Class of executed instruction
system.cpu.op_class::SimdShaSigma2                  0      0.00%     46.67% # Class of executed instruction
system.cpu.op_class::SimdShaSigma3                  0      0.00%     46.67% # Class of executed instruction
system.cpu.op_class::SimdPredAlu                    0      0.00%     46.67% # Class of executed instruction
system.cpu.op_class::MemRead                       13     43.33%     90.00% # Class of executed instruction
system.cpu.op_class::MemWrite                       3     10.00%    100.00% # Class of executed instruction
system.cpu.op_class::FloatMemRead                   0      0.00%    100.00% # Class of executed instruction
system.cpu.op_class::FloatMemWrite                  0      0.00%    100.00% # Class of executed instruction
system.cpu.op_class::IprAccess                      0      0.00%    100.00% # Class of executed instruction
system.cpu.op_class::InstPrefetch                   0      0.00%    100.00% # Class of executed instruction
system.cpu.op_class::total                         30                       # Class of executed instruction
system.cpu.workload.numSyscalls                     0                       # Number of system calls
system.membus.snoop_filter.hit_multi_requests            0                       # Number of requests hitting in the snoop filter with multiple (>1) holders of the requested data.
system.membus.snoop_filter.hit_multi_snoops            0                       # Number of snoops hitting in the snoop filter with multiple (>1) holders of the requested data.
system.membus.snoop_filter.hit_single_requests            0                       # Number of requests hitting in the snoop filter with a single holder of the requested data.
system.membus.snoop_filter.hit_single_snoops            0                       # Number of snoops hitting in the snoop filter with a single holder of the requested data.
system.membus.snoop_filter.tot_requests          1761                       # Total number of requests made to the snoop filter.
system.membus.snoop_filter.tot_snoops               0                       # Total number of snoops made to the snoop filter.
system.switch_cpus.cc_regfile_reads            395529                       # number of cc regfile reads
system.switch_cpus.cc_regfile_writes           398460                       # number of cc regfile writes
system.switch_cpus.committedInsts             1000001                       # Number of Instructions Simulated
system.switch_cpus.committedOps               1000002                       # Number of Ops (including micro ops) Simulated
system.switch_cpus.cpi                       0.741360                       # CPI: Cycles Per Instruction
system.switch_cpus.cpi_total                 0.741360                       # CPI: Total CPI of All Threads
system.switch_cpus.idleCycles                    1501                       # Total number of cycles that the CPU has spent unscheduled due to idling
system.switch_cpus.iew.branchMispredicts         3726                       # Number of branch mispredicts detected at execute
system.switch_cpus.iew.exec_branches           143534                       # Number of branches executed
system.switch_cpus.iew.exec_nop                   444                       # number of nop insts executed
system.switch_cpus.iew.exec_rate             1.531146                       # Inst execution rate
system.switch_cpus.iew.exec_refs               596312                       # number of memory reference insts executed
system.switch_cpus.iew.exec_stores              99471                       # Number of stores executed
system.switch_cpus.iew.exec_swp                     0                       # number of swp insts executed
system.switch_cpus.iew.iewBlockCycles           23744                       # Number of cycles IEW is blocking
system.switch_cpus.iew.iewDispLoadInsts        514876                       # Number of dispatched load instructions
system.switch_cpus.iew.iewDispNonSpecInsts            0                       # Number of dispatched non-speculative instructions
system.switch_cpus.iew.iewDispSquashedInsts           21                       # Number of squashed instructions skipped by dispatch
system.switch_cpus.iew.iewDispStoreInsts       106144                       # Number of dispatched store instructions
system.switch_cpus.iew.iewDispatchedInsts      1199451                       # Number of instructions dispatched to IQ
system.switch_cpus.iew.iewExecLoadInsts        496841                       # Number of load instructions executed
system.switch_cpus.iew.iewExecSquashedInsts         2513                       # Number of squashed instructions skipped in execute
system.switch_cpus.iew.iewExecutedInsts       1135132                       # Number of executed instructions
system.switch_cpus.iew.iewIQFullEvents              0                       # Number of times the IQ has become full, causing a stall
system.switch_cpus.iew.iewIdleCycles                0                       # Number of cycles IEW is idle
system.switch_cpus.iew.iewLSQFullEvents        116736                       # Number of times the LSQ has become full, causing a stall
system.switch_cpus.iew.iewSquashCycles           3596                       # Number of cycles IEW is squashing
system.switch_cpus.iew.iewUnblockCycles        116651                       # Number of cycles IEW is unblocking
system.switch_cpus.iew.memOrderViolationEvents          177                       # Number of memory order violations
system.switch_cpus.iew.predictedNotTakenIncorrect         2391                       # Number of branches that were predicted not taken incorrectly
system.switch_cpus.iew.predictedTakenIncorrect         1335                       # Number of branches that were predicted taken incorrectly
system.switch_cpus.iew.wb_consumers           1146971                       # num instructions consuming a value
system.switch_cpus.iew.wb_count               1126269                       # cumulative count of insts written-back
system.switch_cpus.iew.wb_fanout             0.767284                       # average fanout of values written-back
system.switch_cpus.iew.wb_producers            880052                       # num instructions producing a value
system.switch_cpus.iew.wb_rate               1.519191                       # insts written-back per cycle
system.switch_cpus.iew.wb_sent                1129856                       # cumulative count of insts sent to commit
system.switch_cpus.int_regfile_reads          1252976                       # number of integer regfile reads
system.switch_cpus.int_regfile_writes          886939                       # number of integer regfile writes
system.switch_cpus.ipc                       1.348872                       # IPC: Instructions Per Cycle
system.switch_cpus.ipc_total                 1.348872                       # IPC: Total IPC of All Threads
system.switch_cpus.iq.FU_type_0::No_OpClass           47      0.00%      0.00% # Type of FU issued
system.switch_cpus.iq.FU_type_0::IntAlu        538915     47.37%     47.38% # Type of FU issued
system.switch_cpus.iq.FU_type_0::IntMult            0      0.00%     47.38% # Type of FU issued
system.switch_cpus.iq.FU_type_0::IntDiv             0      0.00%     47.38% # Type of FU issued
system.switch_cpus.iq.FU_type_0::FloatAdd            0      0.00%     47.38% # Type of FU issued
system.switch_cpus.iq.FU_type_0::FloatCmp            0      0.00%     47.38% # Type of FU issued
system.switch_cpus.iq.FU_type_0::FloatCvt            0      0.00%     47.38% # Type of FU issued
system.switch_cpus.iq.FU_type_0::FloatMult            0      0.00%     47.38% # Type of FU issued
system.switch_cpus.iq.FU_type_0::FloatMultAcc            0      0.00%     47.38% # Type of FU issued
system.switch_cpus.iq.FU_type_0::FloatDiv            0      0.00%     47.38% # Type of FU issued
system.switch_cpus.iq.FU_type_0::FloatMisc            0      0.00%     47.38% # Type of FU issued
system.switch_cpus.iq.FU_type_0::FloatSqrt            0      0.00%     47.38% # Type of FU issued
system.switch_cpus.iq.FU_type_0::SimdAdd            0      0.00%     47.38% # Type of FU issued
system.switch_cpus.iq.FU_type_0::SimdAddAcc            0      0.00%     47.38% # Type of FU issued
system.switch_cpus.iq.FU_type_0::SimdAlu            0      0.00%     47.38% # Type of FU issued
system.switch_cpus.iq.FU_type_0::SimdCmp            0      0.00%     47.38% # Type of FU issued
system.switch_cpus.iq.FU_type_0::SimdCvt            0      0.00%     47.38% # Type of FU issued
system.switch_cpus.iq.FU_type_0::SimdMisc            0      0.00%     47.38% # Type of FU issued
system.switch_cpus.iq.FU_type_0::SimdMult            0      0.00%     47.38% # Type of FU issued
system.switch_cpus.iq.FU_type_0::SimdMultAcc            0      0.00%     47.38% # Type of FU issued
system.switch_cpus.iq.FU_type_0::SimdShift            0      0.00%     47.38% # Type of FU issued
system.switch_cpus.iq.FU_type_0::SimdShiftAcc            0      0.00%     47.38% # Type of FU issued
system.switch_cpus.iq.FU_type_0::SimdDiv            0      0.00%     47.38% # Type of FU issued
system.switch_cpus.iq.FU_type_0::SimdSqrt            0      0.00%     47.38% # Type of FU issued
system.switch_cpus.iq.FU_type_0::SimdFloatAdd            0      0.00%     47.38% # Type of FU issued
system.switch_cpus.iq.FU_type_0::SimdFloatAlu            0      0.00%     47.38% # Type of FU issued
system.switch_cpus.iq.FU_type_0::SimdFloatCmp            0      0.00%     47.38% # Type of FU issued
system.switch_cpus.iq.FU_type_0::SimdFloatCvt            0      0.00%     47.38% # Type of FU issued
system.switch_cpus.iq.FU_type_0::SimdFloatDiv            0      0.00%     47.38% # Type of FU issued
system.switch_cpus.iq.FU_type_0::SimdFloatMisc            0      0.00%     47.38% # Type of FU issued
system.switch_cpus.iq.FU_type_0::SimdFloatMult            0      0.00%     47.38% # Type of FU issued
system.switch_cpus.iq.FU_type_0::SimdFloatMultAcc            0      0.00%     47.38% # Type of FU issued
system.switch_cpus.iq.FU_type_0::SimdFloatSqrt            0      0.00%     47.38% # Type of FU issued
system.switch_cpus.iq.FU_type_0::SimdReduceAdd            0      0.00%     47.38% # Type of FU issued
system.switch_cpus.iq.FU_type_0::SimdReduceAlu            0      0.00%     47.38% # Type of FU issued
system.switch_cpus.iq.FU_type_0::SimdReduceCmp            0      0.00%     47.38% # Type of FU issued
system.switch_cpus.iq.FU_type_0::SimdFloatReduceAdd            0      0.00%     47.38% # Type of FU issued
system.switch_cpus.iq.FU_type_0::SimdFloatReduceCmp            0      0.00%     47.38% # Type of FU issued
system.switch_cpus.iq.FU_type_0::SimdAes            0      0.00%     47.38% # Type of FU issued
system.switch_cpus.iq.FU_type_0::SimdAesMix            0      0.00%     47.38% # Type of FU issued
system.switch_cpus.iq.FU_type_0::SimdSha1Hash            0      0.00%     47.38% # Type of FU issued
system.switch_cpus.iq.FU_type_0::SimdSha1Hash2            0      0.00%     47.38% # Type of FU issued
system.switch_cpus.iq.FU_type_0::SimdSha256Hash            0      0.00%     47.38% # Type of FU issued
system.switch_cpus.iq.FU_type_0::SimdSha256Hash2            0      0.00%     47.38% # Type of FU issued
system.switch_cpus.iq.FU_type_0::SimdShaSigma2            0      0.00%     47.38% # Type of FU issued
system.switch_cpus.iq.FU_type_0::SimdShaSigma3            0      0.00%     47.38% # Type of FU issued
system.switch_cpus.iq.FU_type_0::SimdPredAlu            0      0.00%     47.38% # Type of FU issued
system.switch_cpus.iq.FU_type_0::MemRead       498999     43.86%     91.24% # Type of FU issued
system.switch_cpus.iq.FU_type_0::MemWrite        99685      8.76%    100.00% # Type of FU issued
system.switch_cpus.iq.FU_type_0::FloatMemRead            0      0.00%    100.00% # Type of FU issued
system.switch_cpus.iq.FU_type_0::FloatMemWrite            0      0.00%    100.00% # Type of FU issued
system.switch_cpus.iq.FU_type_0::IprAccess            0      0.00%    100.00% # Type of FU issued
system.switch_cpus.iq.FU_type_0::InstPrefetch            0      0.00%    100.00% # Type of FU issued
system.switch_cpus.iq.FU_type_0::total        1137646                       # Type of FU issued
system.switch_cpus.iq.fp_alu_accesses               0                       # Number of floating point alu accesses
system.switch_cpus.iq.fp_inst_queue_reads            0                       # Number of floating instruction queue reads
system.switch_cpus.iq.fp_inst_queue_wakeup_accesses            0                       # Number of floating instruction queue wakeup accesses
system.switch_cpus.iq.fp_inst_queue_writes            0                       # Number of floating instruction queue writes
system.switch_cpus.iq.fu_busy_cnt               30614                       # FU busy when requested
system.switch_cpus.iq.fu_busy_rate           0.026910                       # FU busy rate (busy events/executed inst)
system.switch_cpus.iq.fu_full::No_OpClass            0      0.00%      0.00% # attempts to use FU when none available
system.switch_cpus.iq.fu_full::IntAlu            1984      6.48%      6.48% # attempts to use FU when none available
system.switch_cpus.iq.fu_full::IntMult              0      0.00%      6.48% # attempts to use FU when none available
system.switch_cpus.iq.fu_full::IntDiv               0      0.00%      6.48% # attempts to use FU when none available
system.switch_cpus.iq.fu_full::FloatAdd             0      0.00%      6.48% # attempts to use FU when none available
system.switch_cpus.iq.fu_full::FloatCmp             0      0.00%      6.48% # attempts to use FU when none available
system.switch_cpus.iq.fu_full::FloatCvt             0      0.00%      6.48% # attempts to use FU when none available
system.switch_cpus.iq.fu_full::FloatMult            0      0.00%      6.48% # attempts to use FU when none available
system.switch_cpus.iq.fu_full::FloatMultAcc            0      0.00%      6.48% # attempts to use FU when none available
system.switch_cpus.iq.fu_full::FloatDiv             0      0.00%      6.48% # attempts to use FU when none available
system.switch_cpus.iq.fu_full::FloatMisc            0      0.00%      6.48% # attempts to use FU when none available
system.switch_cpus.iq.fu_full::FloatSqrt            0      0.00%      6.48% # attempts to use FU when none available
system.switch_cpus.iq.fu_full::SimdAdd              0      0.00%      6.48% # attempts to use FU when none available
system.switch_cpus.iq.fu_full::SimdAddAcc            0      0.00%      6.48% # attempts to use FU when none available
system.switch_cpus.iq.fu_full::SimdAlu              0      0.00%      6.48% # attempts to use FU when none available
system.switch_cpus.iq.fu_full::SimdCmp              0      0.00%      6.48% # attempts to use FU when none available
system.switch_cpus.iq.fu_full::SimdCvt              0      0.00%      6.48% # attempts to use FU when none available
system.switch_cpus.iq.fu_full::SimdMisc             0      0.00%      6.48% # attempts to use FU when none available
system.switch_cpus.iq.fu_full::SimdMult             0      0.00%      6.48% # attempts to use FU when none available
system.switch_cpus.iq.fu_full::SimdMultAcc            0      0.00%      6.48% # attempts to use FU when none available
system.switch_cpus.iq.fu_full::SimdShift            0      0.00%      6.48% # attempts to use FU when none available
system.switch_cpus.iq.fu_full::SimdShiftAcc            0      0.00%      6.48% # attempts to use FU when none available
system.switch_cpus.iq.fu_full::SimdDiv              0      0.00%      6.48% # attempts to use FU when none available
system.switch_cpus.iq.fu_full::SimdSqrt             0      0.00%      6.48% # attempts to use FU when none available
system.switch_cpus.iq.fu_full::SimdFloatAdd            0      0.00%      6.48% # attempts to use FU when none available
system.switch_cpus.iq.fu_full::SimdFloatAlu            0      0.00%      6.48% # attempts to use FU when none available
system.switch_cpus.iq.fu_full::SimdFloatCmp            0      0.00%      6.48% # attempts to use FU when none available
system.switch_cpus.iq.fu_full::SimdFloatCvt            0      0.00%      6.48% # attempts to use FU when none available
system.switch_cpus.iq.fu_full::SimdFloatDiv            0      0.00%      6.48% # attempts to use FU when none available
system.switch_cpus.iq.fu_full::SimdFloatMisc            0      0.00%      6.48% # attempts to use FU when none available
system.switch_cpus.iq.fu_full::SimdFloatMult            0      0.00%      6.48% # attempts to use FU when none available
system.switch_cpus.iq.fu_full::SimdFloatMultAcc            0      0.00%      6.48% # attempts to use FU when none available
system.switch_cpus.iq.fu_full::SimdFloatSqrt            0      0.00%      6.48% # attempts to use FU when none available
system.switch_cpus.iq.fu_full::SimdReduceAdd            0      0.00%      6.48% # attempts to use FU when none available
system.switch_cpus.iq.fu_full::SimdReduceAlu            0      0.00%      6.48% # attempts to use FU when none available
system.switch_cpus.iq.fu_full::SimdReduceCmp            0      0.00%      6.48% # attempts to use FU when none available
system.switch_cpus.iq.fu_full::SimdFloatReduceAdd            0      0.00%      6.48% # attempts to use FU when none available
system.switch_cpus.iq.fu_full::SimdFloatReduceCmp            0      0.00%      6.48% # attempts to use FU when none available
system.switch_cpus.iq.fu_full::SimdAes              0      0.00%      6.48% # attempts to use FU when none available
system.switch_cpus.iq.fu_full::SimdAesMix            0      0.00%      6.48% # attempts to use FU when none available
system.switch_cpus.iq.fu_full::SimdSha1Hash            0      0.00%      6.48% # attempts to use FU when none available
system.switch_cpus.iq.fu_full::SimdSha1Hash2            0      0.00%      6.48% # attempts to use FU when none available
system.switch_cpus.iq.fu_full::SimdSha256Hash            0      0.00%      6.48% # attempts to use FU when none available
system.switch_cpus.iq.fu_full::SimdSha256Hash2            0      0.00%      6.48% # attempts to use FU when none available
system.switch_cpus.iq.fu_full::SimdShaSigma2            0      0.00%      6.48% # attempts to use FU when none available
system.switch_cpus.iq.fu_full::SimdShaSigma3            0      0.00%      6.48% # attempts to use FU when none available
system.switch_cpus.iq.fu_full::SimdPredAlu            0      0.00%      6.48% # attempts to use FU when none available
system.switch_cpus.iq.fu_full::MemRead          24312     79.41%     85.90% # attempts to use FU when none available
system.switch_cpus.iq.fu_full::MemWrite          4318     14.10%    100.00% # attempts to use FU when none available
system.switch_cpus.iq.fu_full::FloatMemRead            0      0.00%    100.00% # attempts to use FU when none available
system.switch_cpus.iq.fu_full::FloatMemWrite            0      0.00%    100.00% # attempts to use FU when none available
system.switch_cpus.iq.fu_full::IprAccess            0      0.00%    100.00% # attempts to use FU when none available
system.switch_cpus.iq.fu_full::InstPrefetch            0      0.00%    100.00% # attempts to use FU when none available
system.switch_cpus.iq.int_alu_accesses        1168213                       # Number of integer alu accesses
system.switch_cpus.iq.int_inst_queue_reads      3045884                       # Number of integer instruction queue reads
system.switch_cpus.iq.int_inst_queue_wakeup_accesses      1126269                       # Number of integer instruction queue wakeup accesses
system.switch_cpus.iq.int_inst_queue_writes      1398120                       # Number of integer instruction queue writes
system.switch_cpus.iq.iqInstsAdded            1199007                       # Number of instructions added to the IQ (excludes non-spec)
system.switch_cpus.iq.iqInstsIssued           1137646                       # Number of instructions issued
system.switch_cpus.iq.iqSquashedInstsExamined       198967                       # Number of squashed instructions iterated over during squash; mainly for profiling
system.switch_cpus.iq.iqSquashedInstsIssued          119                       # Number of squashed instructions issued
system.switch_cpus.iq.iqSquashedOperandsExamined       113733                       # Number of squashed operands that are examined and possibly removed from graph
system.switch_cpus.iq.issued_per_cycle::samples       739860                       # Number of insts issued each cycle
system.switch_cpus.iq.issued_per_cycle::mean     1.537650                       # Number of insts issued each cycle
system.switch_cpus.iq.issued_per_cycle::stdev     1.867169                       # Number of insts issued each cycle
system.switch_cpus.iq.issued_per_cycle::underflows            0      0.00%      0.00% # Number of insts issued each cycle
system.switch_cpus.iq.issued_per_cycle::0       354317     47.89%     47.89% # Number of insts issued each cycle
system.switch_cpus.iq.issued_per_cycle::1        86875     11.74%     59.63% # Number of insts issued each cycle
system.switch_cpus.iq.issued_per_cycle::2        86984     11.76%     71.39% # Number of insts issued each cycle
system.switch_cpus.iq.issued_per_cycle::3        73202      9.89%     81.28% # Number of insts issued each cycle
system.switch_cpus.iq.issued_per_cycle::4        70798      9.57%     90.85% # Number of insts issued each cycle
system.switch_cpus.iq.issued_per_cycle::5        40302      5.45%     96.30% # Number of insts issued each cycle
system.switch_cpus.iq.issued_per_cycle::6        20353      2.75%     99.05% # Number of insts issued each cycle
system.switch_cpus.iq.issued_per_cycle::7         5855      0.79%     99.84% # Number of insts issued each cycle
system.switch_cpus.iq.issued_per_cycle::8         1174      0.16%    100.00% # Number of insts issued each cycle
system.switch_cpus.iq.issued_per_cycle::overflows            0      0.00%    100.00% # Number of insts issued each cycle
system.switch_cpus.iq.issued_per_cycle::min_value            0                       # Number of insts issued each cycle
system.switch_cpus.iq.issued_per_cycle::max_value            8                       # Number of insts issued each cycle
system.switch_cpus.iq.issued_per_cycle::total       739860                       # Number of insts issued each cycle
system.switch_cpus.iq.rate                   1.534537                       # Inst issue rate
system.switch_cpus.iq.vec_alu_accesses              0                       # Number of vector alu accesses
system.switch_cpus.iq.vec_inst_queue_reads            0                       # Number of vector instruction queue reads
system.switch_cpus.iq.vec_inst_queue_wakeup_accesses            0                       # Number of vector instruction queue wakeup accesses
system.switch_cpus.iq.vec_inst_queue_writes            0                       # Number of vector instruction queue writes
system.switch_cpus.memDep0.conflictingLoads       195325                       # Number of conflicting loads.
system.switch_cpus.memDep0.conflictingStores        47702                       # Number of conflicting stores.
system.switch_cpus.memDep0.insertedLoads       514876                       # Number of loads inserted to the mem dependence unit.
system.switch_cpus.memDep0.insertedStores       106144                       # Number of stores inserted to the mem dependence unit.
system.switch_cpus.misc_regfile_reads         2602763                       # number of misc regfile reads
system.switch_cpus.misc_regfile_writes              1                       # number of misc regfile writes
system.switch_cpus.numCycles                   741361                       # number of cpu cycles simulated
system.switch_cpus.numWorkItemsCompleted            0                       # number of work items this cpu completed
system.switch_cpus.numWorkItemsStarted              0                       # number of work items this cpu started
system.switch_cpus.timesIdled                      17                       # Number of times that the entire CPU went into an idle state and unscheduled itself
system.switch_cpus.vec_regfile_writes              44                       # number of vector regfile writes
system.tol2bus.snoop_filter.hit_multi_requests            0                       # Number of requests hitting in the snoop filter with multiple (>1) holders of the requested data.
system.tol2bus.snoop_filter.hit_multi_snoops            0                       # Number of snoops hitting in the snoop filter with multiple (>1) holders of the requested data.
system.tol2bus.snoop_filter.hit_single_requests         6973                       # Number of requests hitting in the snoop filter with a single holder of the requested data.
system.tol2bus.snoop_filter.hit_single_snoops            0                       # Number of snoops hitting in the snoop filter with a single holder of the requested data.
system.tol2bus.snoop_filter.tot_requests        14225                       # Total number of requests made to the snoop filter.
system.tol2bus.snoop_filter.tot_snoops              0                       # Total number of snoops made to the snoop filter.
system.clk_domain.clock                          1000                       # Clock period in ticks
system.cpu.dcache.demand_hits::.cpu.data           12                       # number of demand (read+write) hits
system.cpu.dcache.demand_hits::.switch_cpus.data       387493                       # number of demand (read+write) hits
system.cpu.dcache.demand_hits::total           387505                       # number of demand (read+write) hits
system.cpu.dcache.overall_hits::.cpu.data           12                       # number of overall hits
system.cpu.dcache.overall_hits::.switch_cpus.data       387493                       # number of overall hits
system.cpu.dcache.overall_hits::total          387505                       # number of overall hits
system.cpu.dcache.demand_misses::.cpu.data            4                       # number of demand (read+write) misses
system.cpu.dcache.demand_misses::.switch_cpus.data        17720                       # number of demand (read+write) misses
system.cpu.dcache.demand_misses::total          17724                       # number of demand (read+write) misses
system.cpu.dcache.overall_misses::.cpu.data            4                       # number of overall misses
system.cpu.dcache.overall_misses::.switch_cpus.data        17720                       # number of overall misses
system.cpu.dcache.overall_misses::total         17724                       # number of overall misses
system.cpu.dcache.demand_miss_latency::.switch_cpus.data    435480228                       # number of demand (read+write) miss cycles
system.cpu.dcache.demand_miss_latency::total    435480228                       # number of demand (read+write) miss cycles
system.cpu.dcache.overall_miss_latency::.switch_cpus.data    435480228                       # number of overall miss cycles
system.cpu.dcache.overall_miss_latency::total    435480228                       # number of overall miss cycles
system.cpu.dcache.demand_accesses::.cpu.data           16                       # number of demand (read+write) accesses
system.cpu.dcache.demand_accesses::.switch_cpus.data       405213                       # number of demand (read+write) accesses
system.cpu.dcache.demand_accesses::total       405229                       # number of demand (read+write) accesses
system.cpu.dcache.overall_accesses::.cpu.data           16                       # number of overall (read+write) accesses
system.cpu.dcache.overall_accesses::.switch_cpus.data       405213                       # number of overall (read+write) accesses
system.cpu.dcache.overall_accesses::total       405229                       # number of overall (read+write) accesses
system.cpu.dcache.demand_miss_rate::.cpu.data     0.250000                       # miss rate for demand accesses
system.cpu.dcache.demand_miss_rate::.switch_cpus.data     0.043730                       # miss rate for demand accesses
system.cpu.dcache.demand_miss_rate::total     0.043738                       # miss rate for demand accesses
system.cpu.dcache.overall_miss_rate::.cpu.data     0.250000                       # miss rate for overall accesses
system.cpu.dcache.overall_miss_rate::.switch_cpus.data     0.043730                       # miss rate for overall accesses
system.cpu.dcache.overall_miss_rate::total     0.043738                       # miss rate for overall accesses
system.cpu.dcache.demand_avg_miss_latency::.switch_cpus.data 24575.633634                       # average overall miss latency
system.cpu.dcache.demand_avg_miss_latency::total 24570.087339                       # average overall miss latency
system.cpu.dcache.overall_avg_miss_latency::.switch_cpus.data 24575.633634                       # average overall miss latency
system.cpu.dcache.overall_avg_miss_latency::total 24570.087339                       # average overall miss latency
system.cpu.dcache.blocked_cycles::no_mshrs         4860                       # number of cycles access was blocked
system.cpu.dcache.blocked_cycles::no_targets            0                       # number of cycles access was blocked
system.cpu.dcache.blocked::no_mshrs               507                       # number of cycles access was blocked
system.cpu.dcache.blocked::no_targets               0                       # number of cycles access was blocked
system.cpu.dcache.avg_blocked_cycles::no_mshrs     9.585799                       # average number of cycles each access was blocked
system.cpu.dcache.avg_blocked_cycles::no_targets          nan                       # average number of cycles each access was blocked
system.cpu.dcache.writebacks::.writebacks         2098                       # number of writebacks
system.cpu.dcache.writebacks::total              2098                       # number of writebacks
system.cpu.dcache.demand_mshr_hits::.switch_cpus.data        10495                       # number of demand (read+write) MSHR hits
system.cpu.dcache.demand_mshr_hits::total        10495                       # number of demand (read+write) MSHR hits
system.cpu.dcache.overall_mshr_hits::.switch_cpus.data        10495                       # number of overall MSHR hits
system.cpu.dcache.overall_mshr_hits::total        10495                       # number of overall MSHR hits
system.cpu.dcache.demand_mshr_misses::.switch_cpus.data         7225                       # number of demand (read+write) MSHR misses
system.cpu.dcache.demand_mshr_misses::total         7225                       # number of demand (read+write) MSHR misses
system.cpu.dcache.overall_mshr_misses::.switch_cpus.data         7225                       # number of overall MSHR misses
system.cpu.dcache.overall_mshr_misses::total         7225                       # number of overall MSHR misses
system.cpu.dcache.demand_mshr_miss_latency::.switch_cpus.data    154278366                       # number of demand (read+write) MSHR miss cycles
system.cpu.dcache.demand_mshr_miss_latency::total    154278366                       # number of demand (read+write) MSHR miss cycles
system.cpu.dcache.overall_mshr_miss_latency::.switch_cpus.data    154278366                       # number of overall MSHR miss cycles
system.cpu.dcache.overall_mshr_miss_latency::total    154278366                       # number of overall MSHR miss cycles
system.cpu.dcache.demand_mshr_miss_rate::.switch_cpus.data     0.017830                       # mshr miss rate for demand accesses
system.cpu.dcache.demand_mshr_miss_rate::total     0.017829                       # mshr miss rate for demand accesses
system.cpu.dcache.overall_mshr_miss_rate::.switch_cpus.data     0.017830                       # mshr miss rate for overall accesses
system.cpu.dcache.overall_mshr_miss_rate::total     0.017829                       # mshr miss rate for overall accesses
system.cpu.dcache.demand_avg_mshr_miss_latency::.switch_cpus.data 21353.407059                       # average overall mshr miss latency
system.cpu.dcache.demand_avg_mshr_miss_latency::total 21353.407059                       # average overall mshr miss latency
system.cpu.dcache.overall_avg_mshr_miss_latency::.switch_cpus.data 21353.407059                       # average overall mshr miss latency
system.cpu.dcache.overall_avg_mshr_miss_latency::total 21353.407059                       # average overall mshr miss latency
system.cpu.dcache.replacements                   6973                       # number of replacements
system.cpu.dcache.ReadReq_hits::.cpu.data            9                       # number of ReadReq hits
system.cpu.dcache.ReadReq_hits::.switch_cpus.data       303117                       # number of ReadReq hits
system.cpu.dcache.ReadReq_hits::total          303126                       # number of ReadReq hits
system.cpu.dcache.ReadReq_misses::.cpu.data            4                       # number of ReadReq misses
system.cpu.dcache.ReadReq_misses::.switch_cpus.data        13358                       # number of ReadReq misses
system.cpu.dcache.ReadReq_misses::total         13362                       # number of ReadReq misses
system.cpu.dcache.ReadReq_miss_latency::.switch_cpus.data    257246567                       # number of ReadReq miss cycles
system.cpu.dcache.ReadReq_miss_latency::total    257246567                       # number of ReadReq miss cycles
system.cpu.dcache.ReadReq_accesses::.cpu.data           13                       # number of ReadReq accesses(hits+misses)
system.cpu.dcache.ReadReq_accesses::.switch_cpus.data       316475                       # number of ReadReq accesses(hits+misses)
system.cpu.dcache.ReadReq_accesses::total       316488                       # number of ReadReq accesses(hits+misses)
system.cpu.dcache.ReadReq_miss_rate::.cpu.data     0.307692                       # miss rate for ReadReq accesses
system.cpu.dcache.ReadReq_miss_rate::.switch_cpus.data     0.042209                       # miss rate for ReadReq accesses
system.cpu.dcache.ReadReq_miss_rate::total     0.042220                       # miss rate for ReadReq accesses
system.cpu.dcache.ReadReq_avg_miss_latency::.switch_cpus.data 19257.865474                       # average ReadReq miss latency
system.cpu.dcache.ReadReq_avg_miss_latency::total 19252.100509                       # average ReadReq miss latency
system.cpu.dcache.ReadReq_mshr_hits::.switch_cpus.data         6775                       # number of ReadReq MSHR hits
system.cpu.dcache.ReadReq_mshr_hits::total         6775                       # number of ReadReq MSHR hits
system.cpu.dcache.ReadReq_mshr_misses::.switch_cpus.data         6583                       # number of ReadReq MSHR misses
system.cpu.dcache.ReadReq_mshr_misses::total         6583                       # number of ReadReq MSHR misses
system.cpu.dcache.ReadReq_mshr_miss_latency::.switch_cpus.data    131806287                       # number of ReadReq MSHR miss cycles
system.cpu.dcache.ReadReq_mshr_miss_latency::total    131806287                       # number of ReadReq MSHR miss cycles
system.cpu.dcache.ReadReq_mshr_miss_rate::.switch_cpus.data     0.020801                       # mshr miss rate for ReadReq accesses
system.cpu.dcache.ReadReq_mshr_miss_rate::total     0.020800                       # mshr miss rate for ReadReq accesses
system.cpu.dcache.ReadReq_avg_mshr_miss_latency::.switch_cpus.data 20022.221935                       # average ReadReq mshr miss latency
system.cpu.dcache.ReadReq_avg_mshr_miss_latency::total 20022.221935                       # average ReadReq mshr miss latency
system.cpu.dcache.WriteReq_hits::.cpu.data            3                       # number of WriteReq hits
system.cpu.dcache.WriteReq_hits::.switch_cpus.data        84376                       # number of WriteReq hits
system.cpu.dcache.WriteReq_hits::total          84379                       # number of WriteReq hits
system.cpu.dcache.WriteReq_misses::.switch_cpus.data         4362                       # number of WriteReq misses
system.cpu.dcache.WriteReq_misses::total         4362                       # number of WriteReq misses
system.cpu.dcache.WriteReq_miss_latency::.switch_cpus.data    178233661                       # number of WriteReq miss cycles
system.cpu.dcache.WriteReq_miss_latency::total    178233661                       # number of WriteReq miss cycles
system.cpu.dcache.WriteReq_accesses::.cpu.data            3                       # number of WriteReq accesses(hits+misses)
system.cpu.dcache.WriteReq_accesses::.switch_cpus.data        88738                       # number of WriteReq accesses(hits+misses)
system.cpu.dcache.WriteReq_accesses::total        88741                       # number of WriteReq accesses(hits+misses)
system.cpu.dcache.WriteReq_miss_rate::.switch_cpus.data     0.049156                       # miss rate for WriteReq accesses
system.cpu.dcache.WriteReq_miss_rate::total     0.049154                       # miss rate for WriteReq accesses
system.cpu.dcache.WriteReq_avg_miss_latency::.switch_cpus.data 40860.536680                       # average WriteReq miss latency
system.cpu.dcache.WriteReq_avg_miss_latency::total 40860.536680                       # average WriteReq miss latency
system.cpu.dcache.WriteReq_mshr_hits::.switch_cpus.data         3720                       # number of WriteReq MSHR hits
system.cpu.dcache.WriteReq_mshr_hits::total         3720                       # number of WriteReq MSHR hits
system.cpu.dcache.WriteReq_mshr_misses::.switch_cpus.data          642                       # number of WriteReq MSHR misses
system.cpu.dcache.WriteReq_mshr_misses::total          642                       # number of WriteReq MSHR misses
system.cpu.dcache.WriteReq_mshr_miss_latency::.switch_cpus.data     22472079                       # number of WriteReq MSHR miss cycles
system.cpu.dcache.WriteReq_mshr_miss_latency::total     22472079                       # number of WriteReq MSHR miss cycles
system.cpu.dcache.WriteReq_mshr_miss_rate::.switch_cpus.data     0.007235                       # mshr miss rate for WriteReq accesses
system.cpu.dcache.WriteReq_mshr_miss_rate::total     0.007235                       # mshr miss rate for WriteReq accesses
system.cpu.dcache.WriteReq_avg_mshr_miss_latency::.switch_cpus.data 35003.238318                       # average WriteReq mshr miss latency
system.cpu.dcache.WriteReq_avg_mshr_miss_latency::total 35003.238318                       # average WriteReq mshr miss latency
system.cpu.dcache.power_state.pwrStateResidencyTicks::UNDEFINED 442023344298                       # Cumulative time (in ticks) in various power states
system.cpu.dcache.tags.tagsinuse           239.995034                       # Cycle average of tags in use
system.cpu.dcache.tags.total_refs              310326                       # Total number of references to valid blocks.
system.cpu.dcache.tags.sampled_refs              6973                       # Sample count of references to valid blocks.
system.cpu.dcache.tags.avg_refs             44.503944                       # Average number of references to valid blocks.
system.cpu.dcache.tags.warmup_cycle      441783875328                       # Cycle when the warmup percentage was hit.
system.cpu.dcache.tags.occ_blocks::.cpu.data     2.357009                       # Average occupied blocks per requestor
system.cpu.dcache.tags.occ_blocks::.switch_cpus.data   237.638025                       # Average occupied blocks per requestor
system.cpu.dcache.tags.occ_percent::.cpu.data     0.009207                       # Average percentage of cache occupancy
system.cpu.dcache.tags.occ_percent::.switch_cpus.data     0.928274                       # Average percentage of cache occupancy
system.cpu.dcache.tags.occ_percent::total     0.937481                       # Average percentage of cache occupancy
system.cpu.dcache.tags.occ_task_id_blocks::1024          256                       # Occupied blocks per task id
system.cpu.dcache.tags.age_task_id_blocks_1024::0          253                       # Occupied blocks per task id
system.cpu.dcache.tags.age_task_id_blocks_1024::1            3                       # Occupied blocks per task id
system.cpu.dcache.tags.occ_task_id_percent::1024            1                       # Percentage of cache occupancy per task id
system.cpu.dcache.tags.tag_accesses           3249061                       # Number of tag accesses
system.cpu.dcache.tags.data_accesses          3249061                       # Number of data accesses
system.cpu.dcache.tags.power_state.pwrStateResidencyTicks::UNDEFINED 442023344298                       # Cumulative time (in ticks) in various power states
system.cpu.dtb.instHits                             0                       # ITB inst hits
system.cpu.dtb.instMisses                           0                       # ITB inst misses
system.cpu.dtb.readHits                             0                       # DTB read hits
system.cpu.dtb.readMisses                           0                       # DTB read misses
system.cpu.dtb.writeHits                            0                       # DTB write hits
system.cpu.dtb.writeMisses                          0                       # DTB write misses
system.cpu.dtb.inserts                              0                       # Number of times an entry is inserted into the TLB
system.cpu.dtb.flushTlb                             2                       # Number of times complete TLB was flushed
system.cpu.dtb.flushTlbMva                          0                       # Number of times TLB was flushed by MVA
system.cpu.dtb.flushTlbMvaAsid                      0                       # Number of times TLB was flushed by MVA & ASID
system.cpu.dtb.flushTlbAsid                         0                       # Number of times TLB was flushed by ASID
system.cpu.dtb.flushedEntries                       0                       # Number of entries that have been flushed from TLB
system.cpu.dtb.alignFaults                          0                       # Number of TLB faults due to alignment restrictions
system.cpu.dtb.prefetchFaults                       0                       # Number of TLB faults due to prefetch
system.cpu.dtb.domainFaults                         0                       # Number of TLB faults due to domain restrictions
system.cpu.dtb.permsFaults                          0                       # Number of TLB faults due to permissions restrictions
system.cpu.dtb.readAccesses                         0                       # DTB read accesses
system.cpu.dtb.writeAccesses                        0                       # DTB write accesses
system.cpu.dtb.instAccesses                         0                       # ITB inst accesses
system.cpu.dtb.hits                                 0                       # Total TLB (inst and data) hits
system.cpu.dtb.misses                               0                       # Total TLB (inst and data) misses
system.cpu.dtb.accesses                             0                       # Total TLB (inst and data) accesses
system.cpu.dtb.stage2_mmu.stage2_tlb.instHits            0                       # ITB inst hits
system.cpu.dtb.stage2_mmu.stage2_tlb.instMisses            0                       # ITB inst misses
system.cpu.dtb.stage2_mmu.stage2_tlb.readHits            0                       # DTB read hits
system.cpu.dtb.stage2_mmu.stage2_tlb.readMisses            0                       # DTB read misses
system.cpu.dtb.stage2_mmu.stage2_tlb.writeHits            0                       # DTB write hits
system.cpu.dtb.stage2_mmu.stage2_tlb.writeMisses            0                       # DTB write misses
system.cpu.dtb.stage2_mmu.stage2_tlb.inserts            0                       # Number of times an entry is inserted into the TLB
system.cpu.dtb.stage2_mmu.stage2_tlb.flushTlb            0                       # Number of times complete TLB was flushed
system.cpu.dtb.stage2_mmu.stage2_tlb.flushTlbMva            0                       # Number of times TLB was flushed by MVA
system.cpu.dtb.stage2_mmu.stage2_tlb.flushTlbMvaAsid            0                       # Number of times TLB was flushed by MVA & ASID
system.cpu.dtb.stage2_mmu.stage2_tlb.flushTlbAsid            0                       # Number of times TLB was flushed by ASID
system.cpu.dtb.stage2_mmu.stage2_tlb.flushedEntries            0                       # Number of entries that have been flushed from TLB
system.cpu.dtb.stage2_mmu.stage2_tlb.alignFaults            0                       # Number of TLB faults due to alignment restrictions
system.cpu.dtb.stage2_mmu.stage2_tlb.prefetchFaults            0                       # Number of TLB faults due to prefetch
system.cpu.dtb.stage2_mmu.stage2_tlb.domainFaults            0                       # Number of TLB faults due to domain restrictions
system.cpu.dtb.stage2_mmu.stage2_tlb.permsFaults            0                       # Number of TLB faults due to permissions restrictions
system.cpu.dtb.stage2_mmu.stage2_tlb.readAccesses            0                       # DTB read accesses
system.cpu.dtb.stage2_mmu.stage2_tlb.writeAccesses            0                       # DTB write accesses
system.cpu.dtb.stage2_mmu.stage2_tlb.instAccesses            0                       # ITB inst accesses
system.cpu.dtb.stage2_mmu.stage2_tlb.hits            0                       # Total TLB (inst and data) hits
system.cpu.dtb.stage2_mmu.stage2_tlb.misses            0                       # Total TLB (inst and data) misses
system.cpu.dtb.stage2_mmu.stage2_tlb.accesses            0                       # Total TLB (inst and data) accesses
system.cpu.dtb.stage2_mmu.stage2_tlb.walker.walks            0                       # Table walker walks requested
system.cpu.dtb.stage2_mmu.stage2_tlb.walker.requestOrigin_Requested::Data            0                       # Table walker requests started/completed, data/inst
system.cpu.dtb.stage2_mmu.stage2_tlb.walker.requestOrigin_Requested::Inst            0                       # Table walker requests started/completed, data/inst
system.cpu.dtb.stage2_mmu.stage2_tlb.walker.requestOrigin_Requested::total            0                       # Table walker requests started/completed, data/inst
system.cpu.dtb.stage2_mmu.stage2_tlb.walker.requestOrigin_Completed::Data            0                       # Table walker requests started/completed, data/inst
system.cpu.dtb.stage2_mmu.stage2_tlb.walker.requestOrigin_Completed::Inst            0                       # Table walker requests started/completed, data/inst
system.cpu.dtb.stage2_mmu.stage2_tlb.walker.requestOrigin_Completed::total            0                       # Table walker requests started/completed, data/inst
system.cpu.dtb.stage2_mmu.stage2_tlb.walker.requestOrigin::total            0                       # Table walker requests started/completed, data/inst
system.cpu.dtb.stage2_mmu.stage2_tlb.walker.power_state.pwrStateResidencyTicks::UNDEFINED 442023344298                       # Cumulative time (in ticks) in various power states
system.cpu.dtb.walker.walks                         0                       # Table walker walks requested
system.cpu.dtb.walker.requestOrigin_Requested::Data            0                       # Table walker requests started/completed, data/inst
system.cpu.dtb.walker.requestOrigin_Requested::Inst            0                       # Table walker requests started/completed, data/inst
system.cpu.dtb.walker.requestOrigin_Requested::total            0                       # Table walker requests started/completed, data/inst
system.cpu.dtb.walker.requestOrigin_Completed::Data            0                       # Table walker requests started/completed, data/inst
system.cpu.dtb.walker.requestOrigin_Completed::Inst            0                       # Table walker requests started/completed, data/inst
system.cpu.dtb.walker.requestOrigin_Completed::total            0                       # Table walker requests started/completed, data/inst
system.cpu.dtb.walker.requestOrigin::total            0                       # Table walker requests started/completed, data/inst
system.cpu.dtb.walker.power_state.pwrStateResidencyTicks::UNDEFINED 442023344298                       # Cumulative time (in ticks) in various power states
system.cpu.icache.demand_hits::.cpu.inst           27                       # number of demand (read+write) hits
system.cpu.icache.demand_hits::.switch_cpus.inst       151674                       # number of demand (read+write) hits
system.cpu.icache.demand_hits::total           151701                       # number of demand (read+write) hits
system.cpu.icache.overall_hits::.cpu.inst           27                       # number of overall hits
system.cpu.icache.overall_hits::.switch_cpus.inst       151674                       # number of overall hits
system.cpu.icache.overall_hits::total          151701                       # number of overall hits
system.cpu.icache.demand_misses::.cpu.inst            3                       # number of demand (read+write) misses
system.cpu.icache.demand_misses::.switch_cpus.inst           51                       # number of demand (read+write) misses
system.cpu.icache.demand_misses::total             54                       # number of demand (read+write) misses
system.cpu.icache.overall_misses::.cpu.inst            3                       # number of overall misses
system.cpu.icache.overall_misses::.switch_cpus.inst           51                       # number of overall misses
system.cpu.icache.overall_misses::total            54                       # number of overall misses
system.cpu.icache.demand_miss_latency::.switch_cpus.inst      3012621                       # number of demand (read+write) miss cycles
system.cpu.icache.demand_miss_latency::total      3012621                       # number of demand (read+write) miss cycles
system.cpu.icache.overall_miss_latency::.switch_cpus.inst      3012621                       # number of overall miss cycles
system.cpu.icache.overall_miss_latency::total      3012621                       # number of overall miss cycles
system.cpu.icache.demand_accesses::.cpu.inst           30                       # number of demand (read+write) accesses
system.cpu.icache.demand_accesses::.switch_cpus.inst       151725                       # number of demand (read+write) accesses
system.cpu.icache.demand_accesses::total       151755                       # number of demand (read+write) accesses
system.cpu.icache.overall_accesses::.cpu.inst           30                       # number of overall (read+write) accesses
system.cpu.icache.overall_accesses::.switch_cpus.inst       151725                       # number of overall (read+write) accesses
system.cpu.icache.overall_accesses::total       151755                       # number of overall (read+write) accesses
system.cpu.icache.demand_miss_rate::.cpu.inst     0.100000                       # miss rate for demand accesses
system.cpu.icache.demand_miss_rate::.switch_cpus.inst     0.000336                       # miss rate for demand accesses
system.cpu.icache.demand_miss_rate::total     0.000356                       # miss rate for demand accesses
system.cpu.icache.overall_miss_rate::.cpu.inst     0.100000                       # miss rate for overall accesses
system.cpu.icache.overall_miss_rate::.switch_cpus.inst     0.000336                       # miss rate for overall accesses
system.cpu.icache.overall_miss_rate::total     0.000356                       # miss rate for overall accesses
system.cpu.icache.demand_avg_miss_latency::.switch_cpus.inst        59071                       # average overall miss latency
system.cpu.icache.demand_avg_miss_latency::total 55789.277778                       # average overall miss latency
system.cpu.icache.overall_avg_miss_latency::.switch_cpus.inst        59071                       # average overall miss latency
system.cpu.icache.overall_avg_miss_latency::total 55789.277778                       # average overall miss latency
system.cpu.icache.blocked_cycles::no_mshrs            0                       # number of cycles access was blocked
system.cpu.icache.blocked_cycles::no_targets            0                       # number of cycles access was blocked
system.cpu.icache.blocked::no_mshrs                 0                       # number of cycles access was blocked
system.cpu.icache.blocked::no_targets               0                       # number of cycles access was blocked
system.cpu.icache.avg_blocked_cycles::no_mshrs          nan                       # average number of cycles each access was blocked
system.cpu.icache.avg_blocked_cycles::no_targets          nan                       # average number of cycles each access was blocked
system.cpu.icache.demand_mshr_hits::.switch_cpus.inst           31                       # number of demand (read+write) MSHR hits
system.cpu.icache.demand_mshr_hits::total           31                       # number of demand (read+write) MSHR hits
system.cpu.icache.overall_mshr_hits::.switch_cpus.inst           31                       # number of overall MSHR hits
system.cpu.icache.overall_mshr_hits::total           31                       # number of overall MSHR hits
system.cpu.icache.demand_mshr_misses::.switch_cpus.inst           20                       # number of demand (read+write) MSHR misses
system.cpu.icache.demand_mshr_misses::total           20                       # number of demand (read+write) MSHR misses
system.cpu.icache.overall_mshr_misses::.switch_cpus.inst           20                       # number of overall MSHR misses
system.cpu.icache.overall_mshr_misses::total           20                       # number of overall MSHR misses
system.cpu.icache.demand_mshr_miss_latency::.switch_cpus.inst      1493229                       # number of demand (read+write) MSHR miss cycles
system.cpu.icache.demand_mshr_miss_latency::total      1493229                       # number of demand (read+write) MSHR miss cycles
system.cpu.icache.overall_mshr_miss_latency::.switch_cpus.inst      1493229                       # number of overall MSHR miss cycles
system.cpu.icache.overall_mshr_miss_latency::total      1493229                       # number of overall MSHR miss cycles
system.cpu.icache.demand_mshr_miss_rate::.switch_cpus.inst     0.000132                       # mshr miss rate for demand accesses
system.cpu.icache.demand_mshr_miss_rate::total     0.000132                       # mshr miss rate for demand accesses
system.cpu.icache.overall_mshr_miss_rate::.switch_cpus.inst     0.000132                       # mshr miss rate for overall accesses
system.cpu.icache.overall_mshr_miss_rate::total     0.000132                       # mshr miss rate for overall accesses
system.cpu.icache.demand_avg_mshr_miss_latency::.switch_cpus.inst 74661.450000                       # average overall mshr miss latency
system.cpu.icache.demand_avg_mshr_miss_latency::total 74661.450000                       # average overall mshr miss latency
system.cpu.icache.overall_avg_mshr_miss_latency::.switch_cpus.inst 74661.450000                       # average overall mshr miss latency
system.cpu.icache.overall_avg_mshr_miss_latency::total 74661.450000                       # average overall mshr miss latency
system.cpu.icache.replacements                      0                       # number of replacements
system.cpu.icache.ReadReq_hits::.cpu.inst           27                       # number of ReadReq hits
system.cpu.icache.ReadReq_hits::.switch_cpus.inst       151674                       # number of ReadReq hits
system.cpu.icache.ReadReq_hits::total          151701                       # number of ReadReq hits
system.cpu.icache.ReadReq_misses::.cpu.inst            3                       # number of ReadReq misses
system.cpu.icache.ReadReq_misses::.switch_cpus.inst           51                       # number of ReadReq misses
system.cpu.icache.ReadReq_misses::total            54                       # number of ReadReq misses
system.cpu.icache.ReadReq_miss_latency::.switch_cpus.inst      3012621                       # number of ReadReq miss cycles
system.cpu.icache.ReadReq_miss_latency::total      3012621                       # number of ReadReq miss cycles
system.cpu.icache.ReadReq_accesses::.cpu.inst           30                       # number of ReadReq accesses(hits+misses)
system.cpu.icache.ReadReq_accesses::.switch_cpus.inst       151725                       # number of ReadReq accesses(hits+misses)
system.cpu.icache.ReadReq_accesses::total       151755                       # number of ReadReq accesses(hits+misses)
system.cpu.icache.ReadReq_miss_rate::.cpu.inst     0.100000                       # miss rate for ReadReq accesses
system.cpu.icache.ReadReq_miss_rate::.switch_cpus.inst     0.000336                       # miss rate for ReadReq accesses
system.cpu.icache.ReadReq_miss_rate::total     0.000356                       # miss rate for ReadReq accesses
system.cpu.icache.ReadReq_avg_miss_latency::.switch_cpus.inst        59071                       # average ReadReq miss latency
system.cpu.icache.ReadReq_avg_miss_latency::total 55789.277778                       # average ReadReq miss latency
system.cpu.icache.ReadReq_mshr_hits::.switch_cpus.inst           31                       # number of ReadReq MSHR hits
system.cpu.icache.ReadReq_mshr_hits::total           31                       # number of ReadReq MSHR hits
system.cpu.icache.ReadReq_mshr_misses::.switch_cpus.inst           20                       # number of ReadReq MSHR misses
system.cpu.icache.ReadReq_mshr_misses::total           20                       # number of ReadReq MSHR misses
system.cpu.icache.ReadReq_mshr_miss_latency::.switch_cpus.inst      1493229                       # number of ReadReq MSHR miss cycles
system.cpu.icache.ReadReq_mshr_miss_latency::total      1493229                       # number of ReadReq MSHR miss cycles
system.cpu.icache.ReadReq_mshr_miss_rate::.switch_cpus.inst     0.000132                       # mshr miss rate for ReadReq accesses
system.cpu.icache.ReadReq_mshr_miss_rate::total     0.000132                       # mshr miss rate for ReadReq accesses
system.cpu.icache.ReadReq_avg_mshr_miss_latency::.switch_cpus.inst 74661.450000                       # average ReadReq mshr miss latency
system.cpu.icache.ReadReq_avg_mshr_miss_latency::total 74661.450000                       # average ReadReq mshr miss latency
system.cpu.icache.power_state.pwrStateResidencyTicks::UNDEFINED 442023344298                       # Cumulative time (in ticks) in various power states
system.cpu.icache.tags.tagsinuse            15.060692                       # Cycle average of tags in use
system.cpu.icache.tags.total_refs                   0                       # Total number of references to valid blocks.
system.cpu.icache.tags.sampled_refs                 0                       # Sample count of references to valid blocks.
system.cpu.icache.tags.avg_refs                   nan                       # Average number of references to valid blocks.
system.cpu.icache.tags.warmup_cycle      441783875005                       # Cycle when the warmup percentage was hit.
system.cpu.icache.tags.occ_blocks::.cpu.inst     2.999983                       # Average occupied blocks per requestor
system.cpu.icache.tags.occ_blocks::.switch_cpus.inst    12.060709                       # Average occupied blocks per requestor
system.cpu.icache.tags.occ_percent::.cpu.inst     0.005859                       # Average percentage of cache occupancy
system.cpu.icache.tags.occ_percent::.switch_cpus.inst     0.023556                       # Average percentage of cache occupancy
system.cpu.icache.tags.occ_percent::total     0.029415                       # Average percentage of cache occupancy
system.cpu.icache.tags.occ_task_id_blocks::1024           23                       # Occupied blocks per task id
system.cpu.icache.tags.age_task_id_blocks_1024::1           10                       # Occupied blocks per task id
system.cpu.icache.tags.age_task_id_blocks_1024::2           13                       # Occupied blocks per task id
system.cpu.icache.tags.occ_task_id_percent::1024     0.044922                       # Percentage of cache occupancy per task id
system.cpu.icache.tags.tag_accesses           1214063                       # Number of tag accesses
system.cpu.icache.tags.data_accesses          1214063                       # Number of data accesses
system.cpu.icache.tags.power_state.pwrStateResidencyTicks::UNDEFINED 442023344298                       # Cumulative time (in ticks) in various power states
system.cpu.itb.instHits                             0                       # ITB inst hits
system.cpu.itb.instMisses                           0                       # ITB inst misses
system.cpu.itb.readHits                             0                       # DTB read hits
system.cpu.itb.readMisses                           0                       # DTB read misses
system.cpu.itb.writeHits                            0                       # DTB write hits
system.cpu.itb.writeMisses                          0                       # DTB write misses
system.cpu.itb.inserts                              0                       # Number of times an entry is inserted into the TLB
system.cpu.itb.flushTlb                             2                       # Number of times complete TLB was flushed
system.cpu.itb.flushTlbMva                          0                       # Number of times TLB was flushed by MVA
system.cpu.itb.flushTlbMvaAsid                      0                       # Number of times TLB was flushed by MVA & ASID
system.cpu.itb.flushTlbAsid                         0                       # Number of times TLB was flushed by ASID
system.cpu.itb.flushedEntries                       0                       # Number of entries that have been flushed from TLB
system.cpu.itb.alignFaults                          0                       # Number of TLB faults due to alignment restrictions
system.cpu.itb.prefetchFaults                       0                       # Number of TLB faults due to prefetch
system.cpu.itb.domainFaults                         0                       # Number of TLB faults due to domain restrictions
system.cpu.itb.permsFaults                          0                       # Number of TLB faults due to permissions restrictions
system.cpu.itb.readAccesses                         0                       # DTB read accesses
system.cpu.itb.writeAccesses                        0                       # DTB write accesses
system.cpu.itb.instAccesses                         0                       # ITB inst accesses
system.cpu.itb.hits                                 0                       # Total TLB (inst and data) hits
system.cpu.itb.misses                               0                       # Total TLB (inst and data) misses
system.cpu.itb.accesses                             0                       # Total TLB (inst and data) accesses
system.cpu.itb.stage2_mmu.stage2_tlb.instHits            0                       # ITB inst hits
system.cpu.itb.stage2_mmu.stage2_tlb.instMisses            0                       # ITB inst misses
system.cpu.itb.stage2_mmu.stage2_tlb.readHits            0                       # DTB read hits
system.cpu.itb.stage2_mmu.stage2_tlb.readMisses            0                       # DTB read misses
system.cpu.itb.stage2_mmu.stage2_tlb.writeHits            0                       # DTB write hits
system.cpu.itb.stage2_mmu.stage2_tlb.writeMisses            0                       # DTB write misses
system.cpu.itb.stage2_mmu.stage2_tlb.inserts            0                       # Number of times an entry is inserted into the TLB
system.cpu.itb.stage2_mmu.stage2_tlb.flushTlb            0                       # Number of times complete TLB was flushed
system.cpu.itb.stage2_mmu.stage2_tlb.flushTlbMva            0                       # Number of times TLB was flushed by MVA
system.cpu.itb.stage2_mmu.stage2_tlb.flushTlbMvaAsid            0                       # Number of times TLB was flushed by MVA & ASID
system.cpu.itb.stage2_mmu.stage2_tlb.flushTlbAsid            0                       # Number of times TLB was flushed by ASID
system.cpu.itb.stage2_mmu.stage2_tlb.flushedEntries            0                       # Number of entries that have been flushed from TLB
system.cpu.itb.stage2_mmu.stage2_tlb.alignFaults            0                       # Number of TLB faults due to alignment restrictions
system.cpu.itb.stage2_mmu.stage2_tlb.prefetchFaults            0                       # Number of TLB faults due to prefetch
system.cpu.itb.stage2_mmu.stage2_tlb.domainFaults            0                       # Number of TLB faults due to domain restrictions
system.cpu.itb.stage2_mmu.stage2_tlb.permsFaults            0                       # Number of TLB faults due to permissions restrictions
system.cpu.itb.stage2_mmu.stage2_tlb.readAccesses            0                       # DTB read accesses
system.cpu.itb.stage2_mmu.stage2_tlb.writeAccesses            0                       # DTB write accesses
system.cpu.itb.stage2_mmu.stage2_tlb.instAccesses            0                       # ITB inst accesses
system.cpu.itb.stage2_mmu.stage2_tlb.hits            0                       # Total TLB (inst and data) hits
system.cpu.itb.stage2_mmu.stage2_tlb.misses            0                       # Total TLB (inst and data) misses
system.cpu.itb.stage2_mmu.stage2_tlb.accesses            0                       # Total TLB (inst and data) accesses
system.cpu.itb.stage2_mmu.stage2_tlb.walker.walks            0                       # Table walker walks requested
system.cpu.itb.stage2_mmu.stage2_tlb.walker.requestOrigin_Requested::Data            0                       # Table walker requests started/completed, data/inst
system.cpu.itb.stage2_mmu.stage2_tlb.walker.requestOrigin_Requested::Inst            0                       # Table walker requests started/completed, data/inst
system.cpu.itb.stage2_mmu.stage2_tlb.walker.requestOrigin_Requested::total            0                       # Table walker requests started/completed, data/inst
system.cpu.itb.stage2_mmu.stage2_tlb.walker.requestOrigin_Completed::Data            0                       # Table walker requests started/completed, data/inst
system.cpu.itb.stage2_mmu.stage2_tlb.walker.requestOrigin_Completed::Inst            0                       # Table walker requests started/completed, data/inst
system.cpu.itb.stage2_mmu.stage2_tlb.walker.requestOrigin_Completed::total            0                       # Table walker requests started/completed, data/inst
system.cpu.itb.stage2_mmu.stage2_tlb.walker.requestOrigin::total            0                       # Table walker requests started/completed, data/inst
system.cpu.itb.stage2_mmu.stage2_tlb.walker.power_state.pwrStateResidencyTicks::UNDEFINED 442023344298                       # Cumulative time (in ticks) in various power states
system.cpu.itb.walker.walks                         0                       # Table walker walks requested
system.cpu.itb.walker.requestOrigin_Requested::Data            0                       # Table walker requests started/completed, data/inst
system.cpu.itb.walker.requestOrigin_Requested::Inst            0                       # Table walker requests started/completed, data/inst
system.cpu.itb.walker.requestOrigin_Requested::total            0                       # Table walker requests started/completed, data/inst
system.cpu.itb.walker.requestOrigin_Completed::Data            0                       # Table walker requests started/completed, data/inst
system.cpu.itb.walker.requestOrigin_Completed::Inst            0                       # Table walker requests started/completed, data/inst
system.cpu.itb.walker.requestOrigin_Completed::total            0                       # Table walker requests started/completed, data/inst
system.cpu.itb.walker.requestOrigin::total            0                       # Table walker requests started/completed, data/inst
system.cpu.itb.walker.power_state.pwrStateResidencyTicks::UNDEFINED 442023344298                       # Cumulative time (in ticks) in various power states
system.cpu.power_state.numTransitions               1                       # Number of power state transitions
system.cpu.power_state.pwrStateResidencyTicks::ON 441783884400                       # Cumulative time (in ticks) in various power states
system.cpu.power_state.pwrStateResidencyTicks::OFF    239459898                       # Cumulative time (in ticks) in various power states
system.cpu.thread_0.numInsts                        0                       # Number of Instructions committed
system.cpu.thread_0.numOps                          0                       # Number of Ops committed
system.cpu.thread_0.numMemRefs                      0                       # Number of Memory References
system.cpu_clk_domain.clock                       323                       # Clock period in ticks
system.cpu_voltage_domain.voltage                   1                       # Voltage in Volts
system.l2.demand_hits::.switch_cpus.data         5952                       # number of demand (read+write) hits
system.l2.demand_hits::total                     5952                       # number of demand (read+write) hits
system.l2.overall_hits::.switch_cpus.data         5952                       # number of overall hits
system.l2.overall_hits::total                    5952                       # number of overall hits
system.l2.demand_misses::.cpu.inst                  3                       # number of demand (read+write) misses
system.l2.demand_misses::.cpu.data                  4                       # number of demand (read+write) misses
system.l2.demand_misses::.switch_cpus.inst           20                       # number of demand (read+write) misses
system.l2.demand_misses::.switch_cpus.data         1273                       # number of demand (read+write) misses
[...]
system.switch_cpus.dtb.stage2_mmu.stage2_tlb.walker.power_state.pwrStateResidencyTicks::UNDEFINED   1749337315                       # Cumulative time (in ticks) in various power states
system.switch_cpus.dtb.walker.walks                 0                       # Table walker walks requested
system.switch_cpus.dtb.walker.requestOrigin_Requested::Data            0                       # Table walker requests started/completed, data/inst
system.switch_cpus.dtb.walker.requestOrigin_Requested::Inst            0                       # Table walker requests started/completed, data/inst
system.switch_cpus.dtb.walker.requestOrigin_Requested::total            0                       # Table walker requests started/completed, data/inst
system.switch_cpus.dtb.walker.requestOrigin_Completed::Data            0                       # Table walker requests started/completed, data/inst
system.switch_cpus.dtb.walker.requestOrigin_Completed::Inst            0                       # Table walker requests started/completed, data/inst
system.switch_cpus.dtb.walker.requestOrigin_Completed::total            0                       # Table walker requests started/completed, data/inst
system.switch_cpus.dtb.walker.requestOrigin::total            0                       # Table walker requests started/completed, data/inst
system.switch_cpus.dtb.walker.power_state.pwrStateResidencyTicks::UNDEFINED   1749337315                       # Cumulative time (in ticks) in various power states
system.switch_cpus.fetch.icacheStallCycles       955357                       # Number of cycles fetch is stalled on an Icache miss
system.switch_cpus.fetch.insts               10368164                       # Number of instructions fetch has processed
system.switch_cpus.fetch.branches             1638808                       # Number of branches that fetch encountered
system.switch_cpus.fetch.predictedBranches       862546                       # Number of branches that fetch has predicted taken
system.switch_cpus.fetch.cycles               4454876                       # Number of cycles fetch has run and was not squashing or blocked
system.switch_cpus.fetch.squashCycles           11344                       # Number of cycles fetch has spent squashing
system.switch_cpus.fetch.cacheLines            950833                       # Number of cache lines fetched
system.switch_cpus.fetch.icacheSquashes          1145                       # Number of outstanding Icache misses that were squashed
system.switch_cpus.fetch.nisnDist::samples      5415905                       # Number of instructions fetched each cycle (Total)
system.switch_cpus.fetch.nisnDist::mean      1.914392                       # Number of instructions fetched each cycle (Total)
system.switch_cpus.fetch.nisnDist::stdev     2.866120                       # Number of instructions fetched each cycle (Total)
system.switch_cpus.fetch.nisnDist::underflows            0      0.00%      0.00% # Number of instructions fetched each cycle (Total)
system.switch_cpus.fetch.nisnDist::0          3388578     62.57%     62.57% # Number of instructions fetched each cycle (Total)
system.switch_cpus.fetch.nisnDist::1           190862      3.52%     66.09% # Number of instructions fetched each cycle (Total)
system.switch_cpus.fetch.nisnDist::2           124765      2.30%     68.39% # Number of instructions fetched each cycle (Total)
system.switch_cpus.fetch.nisnDist::3           233208      4.31%     72.70% # Number of instructions fetched each cycle (Total)
system.switch_cpus.fetch.nisnDist::4           400888      7.40%     80.10% # Number of instructions fetched each cycle (Total)
system.switch_cpus.fetch.nisnDist::5            88693      1.64%     81.74% # Number of instructions fetched each cycle (Total)
system.switch_cpus.fetch.nisnDist::6           290082      5.36%     87.10% # Number of instructions fetched each cycle (Total)
system.switch_cpus.fetch.nisnDist::7           149993      2.77%     89.87% # Number of instructions fetched each cycle (Total)
system.switch_cpus.fetch.nisnDist::8           548836     10.13%    100.00% # Number of instructions fetched each cycle (Total)
system.switch_cpus.fetch.nisnDist::overflows            0      0.00%    100.00% # Number of instructions fetched each cycle (Total)
system.switch_cpus.fetch.nisnDist::min_value            0                       # Number of instructions fetched each cycle (Total)
system.switch_cpus.fetch.nisnDist::max_value            8                       # Number of instructions fetched each cycle (Total)
system.switch_cpus.fetch.nisnDist::total      5415905                       # Number of instructions fetched each cycle (Total)
system.switch_cpus.fetch.branchRate          0.302592                       # Number of branch fetches per cycle
system.switch_cpus.fetch.rate                1.914392                       # Number of inst fetches per cycle
system.switch_cpus.itb.instHits                     0                       # ITB inst hits
system.switch_cpus.itb.instMisses                   0                       # ITB inst misses
system.switch_cpus.itb.readHits                     0                       # DTB read hits
system.switch_cpus.itb.readMisses                   0                       # DTB read misses
system.switch_cpus.itb.writeHits                    0                       # DTB write hits
system.switch_cpus.itb.writeMisses                  0                       # DTB write misses
system.switch_cpus.itb.inserts                      0                       # Number of times an entry is inserted into the TLB
system.switch_cpus.itb.flushTlb                     0                       # Number of times complete TLB was flushed
system.switch_cpus.itb.flushTlbMva                  0                       # Number of times TLB was flushed by MVA
system.switch_cpus.itb.flushTlbMvaAsid              0                       # Number of times TLB was flushed by MVA & ASID
system.switch_cpus.itb.flushTlbAsid                 0                       # Number of times TLB was flushed by ASID
system.switch_cpus.itb.flushedEntries               0                       # Number of entries that have been flushed from TLB
system.switch_cpus.itb.alignFaults                  0                       # Number of TLB faults due to alignment restrictions
system.switch_cpus.itb.prefetchFaults               0                       # Number of TLB faults due to prefetch
system.switch_cpus.itb.domainFaults                 0                       # Number of TLB faults due to domain restrictions
system.switch_cpus.itb.permsFaults                  0                       # Number of TLB faults due to permissions restrictions
system.switch_cpus.itb.readAccesses                 0                       # DTB read accesses
system.switch_cpus.itb.writeAccesses                0                       # DTB write accesses
system.switch_cpus.itb.instAccesses                 0                       # ITB inst accesses
system.switch_cpus.itb.hits                         0                       # Total TLB (inst and data) hits
system.switch_cpus.itb.misses                       0                       # Total TLB (inst and data) misses
system.switch_cpus.itb.accesses                     0                       # Total TLB (inst and data) accesses
system.switch_cpus.itb.stage2_mmu.stage2_tlb.instHits            0                       # ITB inst hits
system.switch_cpus.itb.stage2_mmu.stage2_tlb.instMisses            0                       # ITB inst misses
system.switch_cpus.itb.stage2_mmu.stage2_tlb.readHits            0                       # DTB read hits
system.switch_cpus.itb.stage2_mmu.stage2_tlb.readMisses            0                       # DTB read misses
system.switch_cpus.itb.stage2_mmu.stage2_tlb.writeHits            0                       # DTB write hits
system.switch_cpus.itb.stage2_mmu.stage2_tlb.writeMisses            0                       # DTB write misses
system.switch_cpus.itb.stage2_mmu.stage2_tlb.inserts            0                       # Number of times an entry is inserted into the TLB
system.switch_cpus.itb.stage2_mmu.stage2_tlb.flushTlb            0                       # Number of times complete TLB was flushed
system.switch_cpus.itb.stage2_mmu.stage2_tlb.flushTlbMva            0                       # Number of times TLB was flushed by MVA
system.switch_cpus.itb.stage2_mmu.stage2_tlb.flushTlbMvaAsid            0                       # Number of times TLB was flushed by MVA & ASID
system.switch_cpus.itb.stage2_mmu.stage2_tlb.flushTlbAsid            0                       # Number of times TLB was flushed by ASID
system.switch_cpus.itb.stage2_mmu.stage2_tlb.flushedEntries            0                       # Number of entries that have been flushed from TLB
system.switch_cpus.itb.stage2_mmu.stage2_tlb.alignFaults            0                       # Number of TLB faults due to alignment restrictions
system.switch_cpus.itb.stage2_mmu.stage2_tlb.prefetchFaults            0                       # Number of TLB faults due to prefetch
system.switch_cpus.itb.stage2_mmu.stage2_tlb.domainFaults            0                       # Number of TLB faults due to domain restrictions
system.switch_cpus.itb.stage2_mmu.stage2_tlb.permsFaults            0                       # Number of TLB faults due to permissions restrictions
system.switch_cpus.itb.stage2_mmu.stage2_tlb.readAccesses            0                       # DTB read accesses
system.switch_cpus.itb.stage2_mmu.stage2_tlb.writeAccesses            0                       # DTB write accesses
system.switch_cpus.itb.stage2_mmu.stage2_tlb.instAccesses            0                       # ITB inst accesses
system.switch_cpus.itb.stage2_mmu.stage2_tlb.hits            0                       # Total TLB (inst and data) hits
system.switch_cpus.itb.stage2_mmu.stage2_tlb.misses            0                       # Total TLB (inst and data) misses
system.switch_cpus.itb.stage2_mmu.stage2_tlb.accesses            0                       # Total TLB (inst and data) accesses
system.switch_cpus.itb.stage2_mmu.stage2_tlb.walker.walks            0                       # Table walker walks requested
system.switch_cpus.itb.stage2_mmu.stage2_tlb.walker.requestOrigin_Requested::Data            0                       # Table walker requests started/completed, data/inst
system.switch_cpus.itb.stage2_mmu.stage2_tlb.walker.requestOrigin_Requested::Inst            0                       # Table walker requests started/completed, data/inst
system.switch_cpus.itb.stage2_mmu.stage2_tlb.walker.requestOrigin_Requested::total            0                       # Table walker requests started/completed, data/inst
system.switch_cpus.itb.stage2_mmu.stage2_tlb.walker.requestOrigin_Completed::Data            0                       # Table walker requests started/completed, data/inst
system.switch_cpus.itb.stage2_mmu.stage2_tlb.walker.requestOrigin_Completed::Inst            0                       # Table walker requests started/completed, data/inst
system.switch_cpus.itb.stage2_mmu.stage2_tlb.walker.requestOrigin_Completed::total            0                       # Table walker requests started/completed, data/inst
system.switch_cpus.itb.stage2_mmu.stage2_tlb.walker.requestOrigin::total            0                       # Table walker requests started/completed, data/inst
system.switch_cpus.itb.stage2_mmu.stage2_tlb.walker.power_state.pwrStateResidencyTicks::UNDEFINED   1749337315                       # Cumulative time (in ticks) in various power states
system.switch_cpus.itb.walker.walks                 0                       # Table walker walks requested
system.switch_cpus.itb.walker.requestOrigin_Requested::Data            0                       # Table walker requests started/completed, data/inst
system.switch_cpus.itb.walker.requestOrigin_Requested::Inst            0                       # Table walker requests started/completed, data/inst
system.switch_cpus.itb.walker.requestOrigin_Requested::total            0                       # Table walker requests started/completed, data/inst
system.switch_cpus.itb.walker.requestOrigin_Completed::Data            0                       # Table walker requests started/completed, data/inst
system.switch_cpus.itb.walker.requestOrigin_Completed::Inst            0                       # Table walker requests started/completed, data/inst
system.switch_cpus.itb.walker.requestOrigin_Completed::total            0                       # Table walker requests started/completed, data/inst
system.switch_cpus.itb.walker.requestOrigin::total            0                       # Table walker requests started/completed, data/inst
system.switch_cpus.itb.walker.power_state.pwrStateResidencyTicks::UNDEFINED   1749337315                       # Cumulative time (in ticks) in various power states
system.switch_cpus.lsq0.forwLoads             1262299                       # Number of loads that had data forwarded from stores
system.switch_cpus.lsq0.squashedLoads           63007                       # Number of loads squashed
system.switch_cpus.lsq0.ignoredResponses           61                       # Number of memory responses ignored because the instruction is squashed
system.switch_cpus.lsq0.memOrderViolation           53                       # Number of memory ordering violations
system.switch_cpus.lsq0.squashedStores          10590                       # Number of stores squashed
system.switch_cpus.lsq0.rescheduledLoads            0                       # Number of loads that were rescheduled
system.switch_cpus.lsq0.blockedByCache             10                       # Number of times an access to memory failed due to the cache being blocked
system.switch_cpus.power_state.pwrStateResidencyTicks::OFF   1749337315                       # Cumulative time (in ticks) in various power states
system.switch_cpus.rename.squashCycles           5672                       # Number of cycles rename is squashing
system.switch_cpus.rename.idleCycles           512580                       # Number of cycles rename is idle
system.switch_cpus.rename.blockCycles          427785                       # Number of cycles rename is blocking
system.switch_cpus.rename.serializeStallCycles            0                       # count of cycles rename stalledfor serializing inst
system.switch_cpus.rename.runCycles           1340039                       # Number of cycles rename is running
system.switch_cpus.rename.unblockCycles       3129829                       # Number of cycles rename is unblocking
system.switch_cpus.rename.renamedInsts       10163981                       # Number of instructions processed by rename
system.switch_cpus.rename.IQFullEvents          51285                       # Number of times rename has blocked due to IQ full
system.switch_cpus.rename.LQFullEvents        3075227                       # Number of times rename has blocked due to LQ full
system.switch_cpus.rename.renamedOperands     12904642                       # Number of destination operands rename has renamed
system.switch_cpus.rename.lookups            15301436                       # Number of register rename lookups that rename has made
system.switch_cpus.rename.intLookups         10486199                       # Number of integer rename lookups
system.switch_cpus.rename.committedMaps      12713526                       # Number of HB maps that are committed
system.switch_cpus.rename.undoneMaps           191116                       # Number of HB maps that are undone due to squashing
system.switch_cpus.rename.serializing               0                       # count of serializing insts renamed
system.switch_cpus.rename.tempSerializing            0                       # count of temporary serializing insts renamed
system.switch_cpus.rename.skidInsts           1658813                       # count of insts added to the skid buffer
system.switch_cpus.rob.reads                 14650449                       # The number of ROB reads
system.switch_cpus.rob.writes                20311438                       # The number of ROB writes
system.switch_cpus.thread_0.numInsts         10000002                       # Number of Instructions committed
system.switch_cpus.thread_0.numOps           10000002                       # Number of Ops committed
system.switch_cpus.thread_0.numMemRefs              0                       # Number of Memory References
system.tol2bus.trans_dist::ReadResp            195497                       # Transaction distribution
system.tol2bus.trans_dist::WritebackDirty        50888                       # Transaction distribution
system.tol2bus.trans_dist::CleanEvict          152825                       # Transaction distribution
system.tol2bus.trans_dist::HardPFReq             8260                       # Transaction distribution
system.tol2bus.trans_dist::ReadExReq             5196                       # Transaction distribution
system.tol2bus.trans_dist::ReadExResp            5196                       # Transaction distribution
system.tol2bus.trans_dist::ReadSharedReq       195497                       # Transaction distribution
system.tol2bus.pkt_count_system.cpu.dcache.mem_side_port::system.l2.cpu_side_port       602079                       # Packet count per connected requestor and responder (bytes)
system.tol2bus.pkt_count::total                602079                       # Packet count per connected requestor and responder (bytes)
system.tol2bus.pkt_size_system.cpu.dcache.mem_side_port::system.l2.cpu_side_port     32202240                       # Cumulative packet size per connected requestor and responder (bytes)
system.tol2bus.pkt_size::total               32202240                       # Cumulative packet size per connected requestor and responder (bytes)
system.tol2bus.snoops                           11280                       # Total snoops (count)
system.tol2bus.snoopTraffic                       128                       # Total snoop traffic (bytes)
system.tol2bus.snoop_fanout::samples           211973                       # Request fanout histogram
system.tol2bus.snoop_fanout::mean            0.000118                       # Request fanout histogram
system.tol2bus.snoop_fanout::stdev           0.010859                       # Request fanout histogram
system.tol2bus.snoop_fanout::underflows             0      0.00%      0.00% # Request fanout histogram
system.tol2bus.snoop_fanout::0                 211948     99.99%     99.99% # Request fanout histogram
system.tol2bus.snoop_fanout::1                     25      0.01%    100.00% # Request fanout histogram
system.tol2bus.snoop_fanout::2                      0      0.00%    100.00% # Request fanout histogram
system.tol2bus.snoop_fanout::overflows              0      0.00%    100.00% # Request fanout histogram
system.tol2bus.snoop_fanout::min_value              0                       # Request fanout histogram
system.tol2bus.snoop_fanout::max_value              1                       # Request fanout histogram
system.tol2bus.snoop_fanout::total             211973                       # Request fanout histogram
system.tol2bus.power_state.pwrStateResidencyTicks::UNDEFINED   1749337315                       # Cumulative time (in ticks) in various power states
system.tol2bus.reqLayer0.occupancy          195393682                       # Layer occupancy (ticks)
system.tol2bus.reqLayer0.utilization             11.2                       # Layer utilization (%)
system.tol2bus.respLayer1.occupancy         324119195                       # Layer occupancy (ticks)
system.tol2bus.respLayer1.utilization            18.5                       # Layer utilization (%)
system.voltage_domain.voltage                       1                       # Voltage in Volts

---------- End Simulation Statistics   ----------
