
---------- Begin Simulation Statistics ----------
final_tick                               246463131250                       # Number of ticks from beginning of simulation (restored from checkpoints and never reset)
host_inst_rate                                 335934                       # Simulator instruction rate (inst/s)
host_mem_usage                               16965260                       # Number of bytes of host memory used
host_op_rate                                   335928                       # Simulator op (including micro ops) rate (op/s)
host_seconds                                     2.98                       # Real time elapsed on the host
host_tick_rate                              155868271                       # Simulator tick rate (ticks/s)
sim_freq                                 1000000000000                       # Frequency of simulated ticks
sim_insts                                     1000030                       # Number of instructions simulated
sim_ops                                       1000030                       # Number of ops (including micro ops) simulated
sim_seconds                                  0.000464                       # Number of seconds simulated
sim_ticks                                   464008050                       # Number of ticks simulated
system.cpu.Branches                                 4                       # Number of branches fetched
system.cpu.committedInsts                          30                       # Number of instructions committed
system.cpu.committedOps                            30                       # Number of ops (including micro ops) committed
system.cpu.idle_fraction                            0                       # Percentage of idle cycles
system.cpu.not_idle_fraction                        1                       # Percentage of non-idle cycles
system.cpu.numCycles                               30                       # number of cpu cycles simulated
system.cpu.numWorkItemsCompleted                    0                       # number of work items this cpu completed
system.cpu.numWorkItemsStarted                      0                       # number of work items this cpu started
system.cpu.num_busy_cycles                         30                       # Number of busy cycles
system.cpu.num_cc_register_reads                    3                       # number of times the CC registers were read
system.cpu.num_cc_register_writes                   3                       # number of times the CC registers were written
system.cpu.num_conditional_control_insts            1                       # number of instructions that are conditional controls
system.cpu.num_fp_alu_accesses                      0                       # Number of float alu accesses
system.cpu.num_fp_insts                             0                       # number of float instructions
system.cpu.num_fp_register_reads                    0                       # number of times the floating registers were read
system.cpu.num_fp_register_writes                   0                       # number of times the floating registers were written
system.cpu.num_func_calls                           3                       # number of times a function call or return occured
system.cpu.num_idle_cycles                          0                       # Number of idle cycles
system.cpu.num_int_alu_accesses                    28                       # Number of integer alu accesses
system.cpu.num_int_insts                           28                       # number of integer instructions
system.cpu.num_int_register_reads                  33                       # number of times the integer registers were read
system.cpu.num_int_register_writes                 22                       # number of times the integer registers were written
system.cpu.num_load_insts                          10                       # Number of load instructions
system.cpu.num_mem_refs                            14                       # number of memory refs
system.cpu.num_store_insts                          4                       # Number of store instructions
system.cpu.num_vec_alu_accesses                     0                       # Number of vector alu accesses
system.cpu.num_vec_insts                            0                       # number of vector instructions
system.cpu.num_vec_register_reads                   0                       # number of times the vector registers were read
system.cpu.num_vec_register_writes                  0                       # number of times the vector registers were written
system.cpu.op_class::No_OpClass                     0      0.00%      0.00% # Class of executed instruction
system.cpu.op_class::IntAlu                        16     53.33%     53.33% # Class of executed instruction
system.cpu.op_class::IntMult                        0      0.00%     53.33% # Class of executed instruction
system.cpu.op_class::IntDiv                         0      0.00%     53.33% # Class of executed instruction
system.cpu.op_class::FloatAdd                       0      0.00%     53.33% # Class of executed instruction
system.cpu.op_class::FloatCmp                       0      0.00%     53.33% # Class of executed instruction
system.cpu.op_class::FloatCvt                       0      0.00%     53.33% # Class of executed instruction
system.cpu.op_class::FloatMult                      0      0.00%     53.33% # Class of executed instruction
system.cpu.op_class::FloatMultAcc                   0      0.00%     53.33% # Class of executed instruction
system.cpu.op_class::FloatDiv                       0      0.00%     53.33% # Class of executed instruction
system.cpu.op_class::FloatMisc                      0      0.00%     53.33% # Class of executed instruction
system.cpu.op_class::FloatSqrt                      0      0.00%     53.33% # Class of executed instruction
system.cpu.op_class::SimdAdd                        0      0.00%     53.33% # Class of executed instruction
system.cpu.op_class::SimdAddAcc                     0      0.00%     53.33% # Class of executed instruction
system.cpu.op_class::SimdAlu                        0      0.00%     53.33% # Class of executed instruction
system.cpu.op_class::SimdCmp                        0      0.00%     53.33% # Class of executed instruction
system.cpu.op_class::SimdCvt                        0      0.00%     53.33% # Class of executed instruction
system.cpu.op_class::SimdMisc                       0      0.00%     53.33% # Class of executed instruction
system.cpu.op_class::SimdMult                       0      0.00%     53.33% # Class of executed instruction
system.cpu.op_class::SimdMultAcc                    0      0.00%     53.33% # Class of executed instruction
system.cpu.op_class::SimdShift                      0      0.00%     53.33% # Class of executed instruction
system.cpu.op_class::SimdShiftAcc                   0      0.00%     53.33% # Class of executed instruction
system.cpu.op_class::SimdDiv                        0      0.00%     53.33% # Class of executed instruction
system.cpu.op_class::SimdSqrt                       0      0.00%     53.33% # Class of executed instruction
system.cpu.op_class::SimdFloatAdd                   0      0.00%     53.33% # Class of executed instruction
system.cpu.op_class::SimdFloatAlu                   0      0.00%     53.33% # Class of executed instruction
system.cpu.op_class::SimdFloatCmp                   0      0.00%     53.33% # Class of executed instruction
system.cpu.op_class::SimdFloatCvt                   0      0.00%     53.33% # Class of executed instruction
system.cpu.op_class::SimdFloatDiv                   0      0.00%     53.33% # Class of executed instruction
system.cpu.op_class::SimdFloatMisc                  0      0.00%     53.33% # Class of executed instruction
system.cpu.op_class::SimdFloatMult                  0      0.00%     53.33% # Class of executed instruction
system.cpu.op_class::SimdFloatMultAcc               0      0.00%     53.33% # Class of executed instruction
system.cpu.op_class::SimdFloatSqrt                  0      0.00%     53.33% # Class of executed instruction
system.cpu.op_class::SimdReduceAdd                  0      0.00%     53.33% # Class of executed instruction
system.cpu.op_class::SimdReduceAlu                  0      0.00%     53.33% # Class of executed instruction
system.cpu.op_class::SimdReduceCmp                  0      0.00%     53.33% # Class of executed instruction
system.cpu.op_class::SimdFloatReduceAdd             0      0.00%     53.33% # Class of executed instruction
system.cpu.op_class::SimdFloatReduceCmp             0      0.00%     53.33% # Class of executed instruction
system.cpu.op_class::SimdAes                        0      0.00%     53.33% # Class of executed instruction
system.cpu.op_class::SimdAesMix                     0      0.00%     53.33% # Class of executed instruction
system.cpu.op_class::SimdSha1Hash                   0      0.00%     53.33% # Class of executed instruction
system.cpu.op_class::SimdSha1Hash2                  0      0.00%     53.33% # Class of executed instruction
system.cpu.op_class::SimdSha256Hash                 0      0.00%     53.33% # Class of executed instruction
system.cpu.op_class::SimdSha256Hash2                0      0.00%     53.33% # Class of executed instruction
system.cpu.op_class::SimdShaSigma2                  0      0.00%     53.33% # Class of executed instruction
system.cpu.op_class::SimdShaSigma3                  0      0.00%     53.33% # Class of executed instruction
system.cpu.op_class::SimdPredAlu                    0      0.00%     53.33% # Class of executed instruction
system.cpu.op_class::MemRead                       10     33.33%     86.67% # Class of executed instruction
system.cpu.op_class::MemWrite                       4     13.33%    100.00% # Class of executed instruction
system.cpu.op_class::FloatMemRead                   0      0.00%    100.00% # Class of executed instruction
system.cpu.op_class::FloatMemWrite                  0      0.00%    100.00% # Class of executed instruction
system.cpu.op_class::IprAccess                      0      0.00%    100.00% # Class of executed instruction
system.cpu.op_class::InstPrefetch                   0      0.00%    100.00% # Class of executed instruction
system.cpu.op_class::total                         30                       # Class of executed instruction
system.cpu.workload.numSyscalls                     0                       # Number of system calls
system.membus.snoop_filter.hit_multi_requests            0                       # Number of requests hitting in the snoop filter with multiple (>1) holders of the requested data.
system.membus.snoop_filter.hit_multi_snoops            0                       # Number of snoops hitting in the snoop filter with multiple (>1) holders of the requested data.
system.membus.snoop_filter.hit_single_requests           33                       # Number of requests hitting in the snoop filter with a single holder of the requested data.
system.membus.snoop_filter.hit_single_snoops            0                       # Number of snoops hitting in the snoop filter with a single holder of the requested data.
system.membus.snoop_filter.tot_requests          6370                       # Total number of requests made to the snoop filter.
system.membus.snoop_filter.tot_snoops               0                       # Total number of snoops made to the snoop filter.
system.switch_cpus.cc_regfile_reads            123951                       # number of cc regfile reads
system.switch_cpus.cc_regfile_writes           123963                       # number of cc regfile writes
system.switch_cpus.committedInsts             1000000                       # Number of Instructions Simulated
system.switch_cpus.committedOps               1000000                       # Number of Ops (including micro ops) Simulated
system.switch_cpus.cpi                       1.436526                       # CPI: Cycles Per Instruction
system.switch_cpus.cpi_total                 1.436526                       # CPI: Total CPI of All Threads
system.switch_cpus.idleCycles                     873                       # Total number of cycles that the CPU has spent unscheduled due to idling
system.switch_cpus.iew.branchMispredicts           33                       # Number of branch mispredicts detected at execute
system.switch_cpus.iew.exec_branches           124012                       # Number of branches executed
system.switch_cpus.iew.exec_nop                 20673                       # number of nop insts executed
system.switch_cpus.iew.exec_rate             0.697490                       # Inst execution rate
system.switch_cpus.iew.exec_refs               475289                       # number of memory reference insts executed
system.switch_cpus.iew.exec_stores             154778                       # Number of stores executed
system.switch_cpus.iew.exec_swp                     0                       # number of swp insts executed
system.switch_cpus.iew.iewBlockCycles          130709                       # Number of cycles IEW is blocking
system.switch_cpus.iew.iewDispLoadInsts        320415                       # Number of dispatched load instructions
system.switch_cpus.iew.iewDispNonSpecInsts            0                       # Number of dispatched non-speculative instructions
system.switch_cpus.iew.iewDispSquashedInsts            0                       # Number of squashed instructions skipped by dispatch
system.switch_cpus.iew.iewDispStoreInsts       155025                       # Number of dispatched store instructions
system.switch_cpus.iew.iewDispatchedInsts      1023251                       # Number of instructions dispatched to IQ
system.switch_cpus.iew.iewExecLoadInsts        320511                       # Number of load instructions executed
system.switch_cpus.iew.iewExecSquashedInsts           63                       # Number of squashed instructions skipped in execute
system.switch_cpus.iew.iewExecutedInsts       1001963                       # Number of executed instructions
system.switch_cpus.iew.iewIQFullEvents           2185                       # Number of times the IQ has become full, causing a stall
system.switch_cpus.iew.iewIdleCycles                0                       # Number of cycles IEW is idle
system.switch_cpus.iew.iewLSQFullEvents        273870                       # Number of times the LSQ has become full, causing a stall
system.switch_cpus.iew.iewSquashCycles             51                       # Number of cycles IEW is squashing
system.switch_cpus.iew.iewUnblockCycles        276417                       # Number of cycles IEW is unblocking
system.switch_cpus.iew.memOrderViolationEvents           25                       # Number of memory order violations
system.switch_cpus.iew.predictedNotTakenIncorrect           33                       # Number of branches that were predicted not taken incorrectly
system.switch_cpus.iew.predictedTakenIncorrect            0                       # Number of branches that were predicted taken incorrectly
system.switch_cpus.iew.wb_consumers            926074                       # num instructions consuming a value
system.switch_cpus.iew.wb_count               1001532                       # cumulative count of insts written-back
system.switch_cpus.iew.wb_fanout             0.752499                       # average fanout of values written-back
system.switch_cpus.iew.wb_producers            696870                       # num instructions producing a value
system.switch_cpus.iew.wb_rate               0.697190                       # insts written-back per cycle
system.switch_cpus.iew.wb_sent                1001552                       # cumulative count of insts sent to commit
system.switch_cpus.int_regfile_reads          1115290                       # number of integer regfile reads
system.switch_cpus.int_regfile_writes          764152                       # number of integer regfile writes
system.switch_cpus.ipc                       0.696124                       # IPC: Instructions Per Cycle
system.switch_cpus.ipc_total                 0.696124                       # IPC: Total IPC of All Threads
system.switch_cpus.iq.FU_type_0::No_OpClass            6      0.00%      0.00% # Type of FU issued
system.switch_cpus.iq.FU_type_0::IntAlu        526682     52.56%     52.56% # Type of FU issued
system.switch_cpus.iq.FU_type_0::IntMult            0      0.00%     52.56% # Type of FU issued
system.switch_cpus.iq.FU_type_0::IntDiv             0      0.00%     52.56% # Type of FU issued
system.switch_cpus.iq.FU_type_0::FloatAdd            0      0.00%     52.56% # Type of FU issued
system.switch_cpus.iq.FU_type_0::FloatCmp            0      0.00%     52.56% # Type of FU issued
system.switch_cpus.iq.FU_type_0::FloatCvt            0      0.00%     52.56% # Type of FU issued
system.switch_cpus.iq.FU_type_0::FloatMult            0      0.00%     52.56% # Type of FU issued
system.switch_cpus.iq.FU_type_0::FloatMultAcc            0      0.00%     52.56% # Type of FU issued
system.switch_cpus.iq.FU_type_0::FloatDiv            0      0.00%     52.56% # Type of FU issued
system.switch_cpus.iq.FU_type_0::FloatMisc            0      0.00%     52.56% # Type of FU issued
system.switch_cpus.iq.FU_type_0::FloatSqrt            0      0.00%     52.56% # Type of FU issued
system.switch_cpus.iq.FU_type_0::SimdAdd            0      0.00%     52.56% # Type of FU issued
system.switch_cpus.iq.FU_type_0::SimdAddAcc            0      0.00%     52.56% # Type of FU issued
system.switch_cpus.iq.FU_type_0::SimdAlu            0      0.00%     52.56% # Type of FU issued
system.switch_cpus.iq.FU_type_0::SimdCmp            0      0.00%     52.56% # Type of FU issued
system.switch_cpus.iq.FU_type_0::SimdCvt            0      0.00%     52.56% # Type of FU issued
system.switch_cpus.iq.FU_type_0::SimdMisc            0      0.00%     52.56% # Type of FU issued
system.switch_cpus.iq.FU_type_0::SimdMult            0      0.00%     52.56% # Type of FU issued
system.switch_cpus.iq.FU_type_0::SimdMultAcc            0      0.00%     52.56% # Type of FU issued
system.switch_cpus.iq.FU_type_0::SimdShift            0      0.00%     52.56% # Type of FU issued
system.switch_cpus.iq.FU_type_0::SimdShiftAcc            0      0.00%     52.56% # Type of FU issued
system.switch_cpus.iq.FU_type_0::SimdDiv            0      0.00%     52.56% # Type of FU issued
system.switch_cpus.iq.FU_type_0::SimdSqrt            0      0.00%     52.56% # Type of FU issued
system.switch_cpus.iq.FU_type_0::SimdFloatAdd            0      0.00%     52.56% # Type of FU issued
system.switch_cpus.iq.FU_type_0::SimdFloatAlu            0      0.00%     52.56% # Type of FU issued
system.switch_cpus.iq.FU_type_0::SimdFloatCmp            0      0.00%     52.56% # Type of FU issued
system.switch_cpus.iq.FU_type_0::SimdFloatCvt            0      0.00%     52.56% # Type of FU issued
system.switch_cpus.iq.FU_type_0::SimdFloatDiv            0      0.00%     52.56% # Type of FU issued
system.switch_cpus.iq.FU_type_0::SimdFloatMisc            0      0.00%     52.56% # Type of FU issued
system.switch_cpus.iq.FU_type_0::SimdFloatMult            0      0.00%     52.56% # Type of FU issued
system.switch_cpus.iq.FU_type_0::SimdFloatMultAcc            0      0.00%     52.56% # Type of FU issued
system.switch_cpus.iq.FU_type_0::SimdFloatSqrt            0      0.00%     52.56% # Type of FU issued
system.switch_cpus.iq.FU_type_0::SimdReduceAdd            0      0.00%     52.56% # Type of FU issued
system.switch_cpus.iq.FU_type_0::SimdReduceAlu            0      0.00%     52.56% # Type of FU issued
system.switch_cpus.iq.FU_type_0::SimdReduceCmp            0      0.00%     52.56% # Type of FU issued
system.switch_cpus.iq.FU_type_0::SimdFloatReduceAdd            0      0.00%     52.56% # Type of FU issued
system.switch_cpus.iq.FU_type_0::SimdFloatReduceCmp            0      0.00%     52.56% # Type of FU issued
system.switch_cpus.iq.FU_type_0::SimdAes            0      0.00%     52.56% # Type of FU issued
system.switch_cpus.iq.FU_type_0::SimdAesMix            0      0.00%     52.56% # Type of FU issued
system.switch_cpus.iq.FU_type_0::SimdSha1Hash            0      0.00%     52.56% # Type of FU issued
system.switch_cpus.iq.FU_type_0::SimdSha1Hash2            0      0.00%     52.56% # Type of FU issued
system.switch_cpus.iq.FU_type_0::SimdSha256Hash            0      0.00%     52.56% # Type of FU issued
system.switch_cpus.iq.FU_type_0::SimdSha256Hash2            0      0.00%     52.56% # Type of FU issued
system.switch_cpus.iq.FU_type_0::SimdShaSigma2            0      0.00%     52.56% # Type of FU issued
system.switch_cpus.iq.FU_type_0::SimdShaSigma3            0      0.00%     52.56% # Type of FU issued
system.switch_cpus.iq.FU_type_0::SimdPredAlu            0      0.00%     52.56% # Type of FU issued
system.switch_cpus.iq.FU_type_0::MemRead       320557     31.99%     84.55% # Type of FU issued
system.switch_cpus.iq.FU_type_0::MemWrite       154781     15.45%    100.00% # Type of FU issued
system.switch_cpus.iq.FU_type_0::FloatMemRead            0      0.00%    100.00% # Type of FU issued
system.switch_cpus.iq.FU_type_0::FloatMemWrite            0      0.00%    100.00% # Type of FU issued
system.switch_cpus.iq.FU_type_0::IprAccess            0      0.00%    100.00% # Type of FU issued
system.switch_cpus.iq.FU_type_0::InstPrefetch            0      0.00%    100.00% # Type of FU issued
system.switch_cpus.iq.FU_type_0::total        1002026                       # Type of FU issued
system.switch_cpus.iq.fp_alu_accesses               0                       # Number of floating point alu accesses
system.switch_cpus.iq.fp_inst_queue_reads            0                       # Number of floating instruction queue reads
system.switch_cpus.iq.fp_inst_queue_wakeup_accesses            0                       # Number of floating instruction queue wakeup accesses
system.switch_cpus.iq.fp_inst_queue_writes            0                       # Number of floating instruction queue writes
system.switch_cpus.iq.fu_busy_cnt                9887                       # FU busy when requested
system.switch_cpus.iq.fu_busy_rate           0.009867                       # FU busy rate (busy events/executed inst)
system.switch_cpus.iq.fu_full::No_OpClass            0      0.00%      0.00% # attempts to use FU when none available
system.switch_cpus.iq.fu_full::IntAlu               0      0.00%      0.00% # attempts to use FU when none available
system.switch_cpus.iq.fu_full::IntMult              0      0.00%      0.00% # attempts to use FU when none available
system.switch_cpus.iq.fu_full::IntDiv               0      0.00%      0.00% # attempts to use FU when none available
system.switch_cpus.iq.fu_full::FloatAdd             0      0.00%      0.00% # attempts to use FU when none available
system.switch_cpus.iq.fu_full::FloatCmp             0      0.00%      0.00% # attempts to use FU when none available
system.switch_cpus.iq.fu_full::FloatCvt             0      0.00%      0.00% # attempts to use FU when none available
system.switch_cpus.iq.fu_full::FloatMult            0      0.00%      0.00% # attempts to use FU when none available
system.switch_cpus.iq.fu_full::FloatMultAcc            0      0.00%      0.00% # attempts to use FU when none available
system.switch_cpus.iq.fu_full::FloatDiv             0      0.00%      0.00% # attempts to use FU when none available
system.switch_cpus.iq.fu_full::FloatMisc            0      0.00%      0.00% # attempts to use FU when none available
system.switch_cpus.iq.fu_full::FloatSqrt            0      0.00%      0.00% # attempts to use FU when none available
system.switch_cpus.iq.fu_full::SimdAdd              0      0.00%      0.00% # attempts to use FU when none available
system.switch_cpus.iq.fu_full::SimdAddAcc            0      0.00%      0.00% # attempts to use FU when none available
system.switch_cpus.iq.fu_full::SimdAlu              0      0.00%      0.00% # attempts to use FU when none available
system.switch_cpus.iq.fu_full::SimdCmp              0      0.00%      0.00% # attempts to use FU when none available
system.switch_cpus.iq.fu_full::SimdCvt              0      0.00%      0.00% # attempts to use FU when none available
system.switch_cpus.iq.fu_full::SimdMisc             0      0.00%      0.00% # attempts to use FU when none available
system.switch_cpus.iq.fu_full::SimdMult             0      0.00%      0.00% # attempts to use FU when none available
system.switch_cpus.iq.fu_full::SimdMultAcc            0      0.00%      0.00% # attempts to use FU when none available
system.switch_cpus.iq.fu_full::SimdShift            0      0.00%      0.00% # attempts to use FU when none available
system.switch_cpus.iq.fu_full::SimdShiftAcc            0      0.00%      0.00% # attempts to use FU when none available
system.switch_cpus.iq.fu_full::SimdDiv              0      0.00%      0.00% # attempts to use FU when none available
system.switch_cpus.iq.fu_full::SimdSqrt             0      0.00%      0.00% # attempts to use FU when none available
system.switch_cpus.iq.fu_full::SimdFloatAdd            0      0.00%      0.00% # attempts to use FU when none available
system.switch_cpus.iq.fu_full::SimdFloatAlu            0      0.00%      0.00% # attempts to use FU when none available
system.switch_cpus.iq.fu_full::SimdFloatCmp            0      0.00%      0.00% # attempts to use FU when none available
system.switch_cpus.iq.fu_full::SimdFloatCvt            0      0.00%      0.00% # attempts to use FU when none available
system.switch_cpus.iq.fu_full::SimdFloatDiv            0      0.00%      0.00% # attempts to use FU when none available
system.switch_cpus.iq.fu_full::SimdFloatMisc            0      0.00%      0.00% # attempts to use FU when none available
system.switch_cpus.iq.fu_full::SimdFloatMult            0      0.00%      0.00% # attempts to use FU when none available
system.switch_cpus.iq.fu_full::SimdFloatMultAcc            0      0.00%      0.00% # attempts to use FU when none available
system.switch_cpus.iq.fu_full::SimdFloatSqrt            0      0.00%      0.00% # attempts to use FU when none available
system.switch_cpus.iq.fu_full::SimdReduceAdd            0      0.00%      0.00% # attempts to use FU when none available
system.switch_cpus.iq.fu_full::SimdReduceAlu            0      0.00%      0.00% # attempts to use FU when none available
system.switch_cpus.iq.fu_full::SimdReduceCmp            0      0.00%      0.00% # attempts to use FU when none available
system.switch_cpus.iq.fu_full::SimdFloatReduceAdd            0      0.00%      0.00% # attempts to use FU when none available
system.switch_cpus.iq.fu_full::SimdFloatReduceCmp            0      0.00%      0.00% # attempts to use FU when none available
system.switch_cpus.iq.fu_full::SimdAes              0      0.00%      0.00% # attempts to use FU when none available
system.switch_cpus.iq.fu_full::SimdAesMix            0      0.00%      0.00% # attempts to use FU when none available
system.switch_cpus.iq.fu_full::SimdSha1Hash            0      0.00%      0.00% # attempts to use FU when none available
system.switch_cpus.iq.fu_full::SimdSha1Hash2            0      0.00%      0.00% # attempts to use FU when none available
system.switch_cpus.iq.fu_full::SimdSha256Hash            0      0.00%      0.00% # attempts to use FU when none available
system.switch_cpus.iq.fu_full::SimdSha256Hash2            0      0.00%      0.00% # attempts to use FU when none available
system.switch_cpus.iq.fu_full::SimdShaSigma2            0      0.00%      0.00% # attempts to use FU when none available
system.switch_cpus.iq.fu_full::SimdShaSigma3            0      0.00%      0.00% # attempts to use FU when none available
system.switch_cpus.iq.fu_full::SimdPredAlu            0      0.00%      0.00% # attempts to use FU when none available
system.switch_cpus.iq.fu_full::MemRead           9886     99.99%     99.99% # attempts to use FU when none available
system.switch_cpus.iq.fu_full::MemWrite             1      0.01%    100.00% # attempts to use FU when none available
system.switch_cpus.iq.fu_full::FloatMemRead            0      0.00%    100.00% # attempts to use FU when none available
system.switch_cpus.iq.fu_full::FloatMemWrite            0      0.00%    100.00% # attempts to use FU when none available
system.switch_cpus.iq.fu_full::IprAccess            0      0.00%    100.00% # attempts to use FU when none available
system.switch_cpus.iq.fu_full::InstPrefetch            0      0.00%    100.00% # attempts to use FU when none available
system.switch_cpus.iq.int_alu_accesses        1011907                       # Number of integer alu accesses
system.switch_cpus.iq.int_inst_queue_reads      3449592                       # Number of integer instruction queue reads
system.switch_cpus.iq.int_inst_queue_wakeup_accesses      1001532                       # Number of integer instruction queue wakeup accesses
system.switch_cpus.iq.int_inst_queue_writes      1005096                       # Number of integer instruction queue writes
system.switch_cpus.iq.iqInstsAdded            1002578                       # Number of instructions added to the IQ (excludes non-spec)
system.switch_cpus.iq.iqInstsIssued           1002026                       # Number of instructions issued
system.switch_cpus.iq.iqSquashedInstsExamined         2494                       # Number of squashed instructions iterated over during squash; mainly for profiling
system.switch_cpus.iq.iqSquashedOperandsExamined         1415                       # Number of squashed operands that are examined and possibly removed from graph
system.switch_cpus.iq.issued_per_cycle::samples      1435653                       # Number of insts issued each cycle
system.switch_cpus.iq.issued_per_cycle::mean     0.697958                       # Number of insts issued each cycle
system.switch_cpus.iq.issued_per_cycle::stdev     1.272263                       # Number of insts issued each cycle
system.switch_cpus.iq.issued_per_cycle::underflows            0      0.00%      0.00% # Number of insts issued each cycle
system.switch_cpus.iq.issued_per_cycle::0       986743     68.73%     68.73% # Number of insts issued each cycle
system.switch_cpus.iq.issued_per_cycle::1       171000     11.91%     80.64% # Number of insts issued each cycle
system.switch_cpus.iq.issued_per_cycle::2       122110      8.51%     89.15% # Number of insts issued each cycle
system.switch_cpus.iq.issued_per_cycle::3        82191      5.72%     94.87% # Number of insts issued each cycle
system.switch_cpus.iq.issued_per_cycle::4        40568      2.83%     97.70% # Number of insts issued each cycle
system.switch_cpus.iq.issued_per_cycle::5        23650      1.65%     99.35% # Number of insts issued each cycle
system.switch_cpus.iq.issued_per_cycle::6         6965      0.49%     99.83% # Number of insts issued each cycle
system.switch_cpus.iq.issued_per_cycle::7         1487      0.10%     99.93% # Number of insts issued each cycle
system.switch_cpus.iq.issued_per_cycle::8          939      0.07%    100.00% # Number of insts issued each cycle
system.switch_cpus.iq.issued_per_cycle::overflows            0      0.00%    100.00% # Number of insts issued each cycle
system.switch_cpus.iq.issued_per_cycle::min_value            0                       # Number of insts issued each cycle
system.switch_cpus.iq.issued_per_cycle::max_value            8                       # Number of insts issued each cycle
system.switch_cpus.iq.issued_per_cycle::total      1435653                       # Number of insts issued each cycle
system.switch_cpus.iq.rate                   0.697534                       # Inst issue rate
system.switch_cpus.iq.vec_alu_accesses              0                       # Number of vector alu accesses
system.switch_cpus.iq.vec_inst_queue_reads            0                       # Number of vector instruction queue reads
system.switch_cpus.iq.vec_inst_queue_wakeup_accesses            0                       # Number of vector instruction queue wakeup accesses
system.switch_cpus.iq.vec_inst_queue_writes            0                       # Number of vector instruction queue writes
system.switch_cpus.memDep0.conflictingLoads       208226                       # Number of conflicting loads.
system.switch_cpus.memDep0.conflictingStores        79417                       # Number of conflicting stores.
system.switch_cpus.memDep0.insertedLoads       320415                       # Number of loads inserted to the mem dependence unit.
system.switch_cpus.memDep0.insertedStores       155025                       # Number of stores inserted to the mem dependence unit.
system.switch_cpus.misc_regfile_reads         2231812                       # number of misc regfile reads
system.switch_cpus.misc_regfile_writes              1                       # number of misc regfile writes
system.switch_cpus.numCycles                  1436526                       # number of cpu cycles simulated
system.switch_cpus.numWorkItemsCompleted            0                       # number of work items this cpu completed
system.switch_cpus.numWorkItemsStarted              0                       # number of work items this cpu started
system.switch_cpus.timesIdled                       6                       # Number of times that the entire CPU went into an idle state and unscheduled itself
system.switch_cpus.vec_regfile_writes              44                       # number of vector regfile writes
system.tol2bus.snoop_filter.hit_multi_requests            0                       # Number of requests hitting in the snoop filter with multiple (>1) holders of the requested data.
system.tol2bus.snoop_filter.hit_multi_snoops            0                       # Number of snoops hitting in the snoop filter with multiple (>1) holders of the requested data.
system.tol2bus.snoop_filter.hit_single_requests        32220                       # Number of requests hitting in the snoop filter with a single holder of the requested data.
system.tol2bus.snoop_filter.hit_single_snoops            0                       # Number of snoops hitting in the snoop filter with a single holder of the requested data.
system.tol2bus.snoop_filter.tot_requests        64702                       # Total number of requests made to the snoop filter.
system.tol2bus.snoop_filter.tot_snoops              0                       # Total number of snoops made to the snoop filter.
system.clk_domain.clock                          1000                       # Clock period in ticks
system.cpu.dcache.demand_hits::.cpu.data            9                       # number of demand (read+write) hits
system.cpu.dcache.demand_hits::.switch_cpus.data       250962                       # number of demand (read+write) hits
system.cpu.dcache.demand_hits::total           250971                       # number of demand (read+write) hits
system.cpu.dcache.overall_hits::.cpu.data            9                       # number of overall hits
system.cpu.dcache.overall_hits::.switch_cpus.data       250962                       # number of overall hits
system.cpu.dcache.overall_hits::total          250971                       # number of overall hits
system.cpu.dcache.demand_misses::.cpu.data            5                       # number of demand (read+write) misses
system.cpu.dcache.demand_misses::.switch_cpus.data        32490                       # number of demand (read+write) misses
system.cpu.dcache.demand_misses::total          32495                       # number of demand (read+write) misses
system.cpu.dcache.overall_misses::.cpu.data            5                       # number of overall misses
system.cpu.dcache.overall_misses::.switch_cpus.data        32490                       # number of overall misses
system.cpu.dcache.overall_misses::total         32495                       # number of overall misses
system.cpu.dcache.demand_miss_latency::.switch_cpus.data    759850070                       # number of demand (read+write) miss cycles
system.cpu.dcache.demand_miss_latency::total    759850070                       # number of demand (read+write) miss cycles
system.cpu.dcache.overall_miss_latency::.switch_cpus.data    759850070                       # number of overall miss cycles
system.cpu.dcache.overall_miss_latency::total    759850070                       # number of overall miss cycles
system.cpu.dcache.demand_accesses::.cpu.data           14                       # number of demand (read+write) accesses
system.cpu.dcache.demand_accesses::.switch_cpus.data       283452                       # number of demand (read+write) accesses
system.cpu.dcache.demand_accesses::total       283466                       # number of demand (read+write) accesses
system.cpu.dcache.overall_accesses::.cpu.data           14                       # number of overall (read+write) accesses
system.cpu.dcache.overall_accesses::.switch_cpus.data       283452                       # number of overall (read+write) accesses
system.cpu.dcache.overall_accesses::total       283466                       # number of overall (read+write) accesses
system.cpu.dcache.demand_miss_rate::.cpu.data     0.357143                       # miss rate for demand accesses
system.cpu.dcache.demand_miss_rate::.switch_cpus.data     0.114623                       # miss rate for demand accesses
system.cpu.dcache.demand_miss_rate::total     0.114635                       # miss rate for demand accesses
system.cpu.dcache.overall_miss_rate::.cpu.data     0.357143                       # miss rate for overall accesses
system.cpu.dcache.overall_miss_rate::.switch_cpus.data     0.114623                       # miss rate for overall accesses
system.cpu.dcache.overall_miss_rate::total     0.114635                       # miss rate for overall accesses
system.cpu.dcache.demand_avg_miss_latency::.switch_cpus.data 23387.198215                       # average overall miss latency
system.cpu.dcache.demand_avg_miss_latency::total 23383.599631                       # average overall miss latency
system.cpu.dcache.overall_avg_miss_latency::.switch_cpus.data 23387.198215                       # average overall miss latency
system.cpu.dcache.overall_avg_miss_latency::total 23383.599631                       # average overall miss latency
system.cpu.dcache.blocked_cycles::no_mshrs        28171                       # number of cycles access was blocked
system.cpu.dcache.blocked_cycles::no_targets            0                       # number of cycles access was blocked
system.cpu.dcache.blocked::no_mshrs              1086                       # number of cycles access was blocked
system.cpu.dcache.blocked::no_targets               0                       # number of cycles access was blocked
system.cpu.dcache.avg_blocked_cycles::no_mshrs    25.940147                       # average number of cycles each access was blocked
system.cpu.dcache.avg_blocked_cycles::no_targets          nan                       # average number of cycles each access was blocked
system.cpu.dcache.writebacks::.writebacks        30940                       # number of writebacks
system.cpu.dcache.writebacks::total             30940                       # number of writebacks
system.cpu.dcache.demand_mshr_hits::.switch_cpus.data           18                       # number of demand (read+write) MSHR hits
system.cpu.dcache.demand_mshr_hits::total           18                       # number of demand (read+write) MSHR hits
system.cpu.dcache.overall_mshr_hits::.switch_cpus.data           18                       # number of overall MSHR hits
system.cpu.dcache.overall_mshr_hits::total           18                       # number of overall MSHR hits
system.cpu.dcache.demand_mshr_misses::.switch_cpus.data        32472                       # number of demand (read+write) MSHR misses
system.cpu.dcache.demand_mshr_misses::total        32472                       # number of demand (read+write) MSHR misses
system.cpu.dcache.overall_mshr_misses::.switch_cpus.data        32472                       # number of overall MSHR misses
system.cpu.dcache.overall_mshr_misses::total        32472                       # number of overall MSHR misses
system.cpu.dcache.demand_mshr_miss_latency::.switch_cpus.data    738209070                       # number of demand (read+write) MSHR miss cycles
system.cpu.dcache.demand_mshr_miss_latency::total    738209070                       # number of demand (read+write) MSHR miss cycles
system.cpu.dcache.overall_mshr_miss_latency::.switch_cpus.data    738209070                       # number of overall MSHR miss cycles
system.cpu.dcache.overall_mshr_miss_latency::total    738209070                       # number of overall MSHR miss cycles
system.cpu.dcache.demand_mshr_miss_rate::.switch_cpus.data     0.114559                       # mshr miss rate for demand accesses
system.cpu.dcache.demand_mshr_miss_rate::total     0.114553                       # mshr miss rate for demand accesses
system.cpu.dcache.overall_mshr_miss_rate::.switch_cpus.data     0.114559                       # mshr miss rate for overall accesses
system.cpu.dcache.overall_mshr_miss_rate::total     0.114553                       # mshr miss rate for overall accesses
system.cpu.dcache.demand_avg_mshr_miss_latency::.switch_cpus.data 22733.711197                       # average overall mshr miss latency
system.cpu.dcache.demand_avg_mshr_miss_latency::total 22733.711197                       # average overall mshr miss latency
system.cpu.dcache.overall_avg_mshr_miss_latency::.switch_cpus.data 22733.711197                       # average overall mshr miss latency
system.cpu.dcache.overall_avg_mshr_miss_latency::total 22733.711197                       # average overall mshr miss latency
system.cpu.dcache.replacements                  32220                       # number of replacements
system.cpu.dcache.ReadReq_hits::.cpu.data            7                       # number of ReadReq hits
system.cpu.dcache.ReadReq_hits::.switch_cpus.data       112743                       # number of ReadReq hits
system.cpu.dcache.ReadReq_hits::total          112750                       # number of ReadReq hits
system.cpu.dcache.ReadReq_misses::.cpu.data            3                       # number of ReadReq misses
system.cpu.dcache.ReadReq_misses::.switch_cpus.data        16096                       # number of ReadReq misses
system.cpu.dcache.ReadReq_misses::total         16099                       # number of ReadReq misses
system.cpu.dcache.ReadReq_miss_latency::.switch_cpus.data    275102653                       # number of ReadReq miss cycles
system.cpu.dcache.ReadReq_miss_latency::total    275102653                       # number of ReadReq miss cycles
system.cpu.dcache.ReadReq_accesses::.cpu.data           10                       # number of ReadReq accesses(hits+misses)
system.cpu.dcache.ReadReq_accesses::.switch_cpus.data       128839                       # number of ReadReq accesses(hits+misses)
system.cpu.dcache.ReadReq_accesses::total       128849                       # number of ReadReq accesses(hits+misses)
system.cpu.dcache.ReadReq_miss_rate::.cpu.data     0.300000                       # miss rate for ReadReq accesses
system.cpu.dcache.ReadReq_miss_rate::.switch_cpus.data     0.124931                       # miss rate for ReadReq accesses
system.cpu.dcache.ReadReq_miss_rate::total     0.124945                       # miss rate for ReadReq accesses
system.cpu.dcache.ReadReq_avg_miss_latency::.switch_cpus.data 17091.367607                       # average ReadReq miss latency
system.cpu.dcache.ReadReq_avg_miss_latency::total 17088.182682                       # average ReadReq miss latency
system.cpu.dcache.ReadReq_mshr_hits::.switch_cpus.data            7                       # number of ReadReq MSHR hits
system.cpu.dcache.ReadReq_mshr_hits::total            7                       # number of ReadReq MSHR hits
system.cpu.dcache.ReadReq_mshr_misses::.switch_cpus.data        16089                       # number of ReadReq MSHR misses
system.cpu.dcache.ReadReq_mshr_misses::total        16089                       # number of ReadReq MSHR misses
system.cpu.dcache.ReadReq_mshr_miss_latency::.switch_cpus.data    264561871                       # number of ReadReq MSHR miss cycles
system.cpu.dcache.ReadReq_mshr_miss_latency::total    264561871                       # number of ReadReq MSHR miss cycles
system.cpu.dcache.ReadReq_mshr_miss_rate::.switch_cpus.data     0.124877                       # mshr miss rate for ReadReq accesses
system.cpu.dcache.ReadReq_mshr_miss_rate::total     0.124867                       # mshr miss rate for ReadReq accesses
system.cpu.dcache.ReadReq_avg_mshr_miss_latency::.switch_cpus.data 16443.649139                       # average ReadReq mshr miss latency
system.cpu.dcache.ReadReq_avg_mshr_miss_latency::total 16443.649139                       # average ReadReq mshr miss latency
system.cpu.dcache.WriteReq_hits::.cpu.data            2                       # number of WriteReq hits
system.cpu.dcache.WriteReq_hits::.switch_cpus.data       138219                       # number of WriteReq hits
system.cpu.dcache.WriteReq_hits::total         138221                       # number of WriteReq hits
system.cpu.dcache.WriteReq_misses::.cpu.data            2                       # number of WriteReq misses
system.cpu.dcache.WriteReq_misses::.switch_cpus.data        16394                       # number of WriteReq misses
system.cpu.dcache.WriteReq_misses::total        16396                       # number of WriteReq misses
system.cpu.dcache.WriteReq_miss_latency::.switch_cpus.data    484747417                       # number of WriteReq miss cycles
system.cpu.dcache.WriteReq_miss_latency::total    484747417                       # number of WriteReq miss cycles
system.cpu.dcache.WriteReq_accesses::.cpu.data            4                       # number of WriteReq accesses(hits+misses)
system.cpu.dcache.WriteReq_accesses::.switch_cpus.data       154613                       # number of WriteReq accesses(hits+misses)
system.cpu.dcache.WriteReq_accesses::total       154617                       # number of WriteReq accesses(hits+misses)
system.cpu.dcache.WriteReq_miss_rate::.cpu.data     0.500000                       # miss rate for WriteReq accesses
system.cpu.dcache.WriteReq_miss_rate::.switch_cpus.data     0.106032                       # miss rate for WriteReq accesses
system.cpu.dcache.WriteReq_miss_rate::total     0.106043                       # miss rate for WriteReq accesses
system.cpu.dcache.WriteReq_avg_miss_latency::.switch_cpus.data 29568.587105                       # average WriteReq miss latency
system.cpu.dcache.WriteReq_avg_miss_latency::total 29564.980300                       # average WriteReq miss latency
system.cpu.dcache.WriteReq_mshr_hits::.switch_cpus.data           11                       # number of WriteReq MSHR hits
system.cpu.dcache.WriteReq_mshr_hits::total           11                       # number of WriteReq MSHR hits
system.cpu.dcache.WriteReq_mshr_misses::.switch_cpus.data        16383                       # number of WriteReq MSHR misses
system.cpu.dcache.WriteReq_mshr_misses::total        16383                       # number of WriteReq MSHR misses
system.cpu.dcache.WriteReq_mshr_miss_latency::.switch_cpus.data    473647199                       # number of WriteReq MSHR miss cycles
system.cpu.dcache.WriteReq_mshr_miss_latency::total    473647199                       # number of WriteReq MSHR miss cycles
system.cpu.dcache.WriteReq_mshr_miss_rate::.switch_cpus.data     0.105961                       # mshr miss rate for WriteReq accesses
system.cpu.dcache.WriteReq_mshr_miss_rate::total     0.105959                       # mshr miss rate for WriteReq accesses
system.cpu.dcache.WriteReq_avg_mshr_miss_latency::.switch_cpus.data 28910.895379                       # average WriteReq mshr miss latency
system.cpu.dcache.WriteReq_avg_mshr_miss_latency::total 28910.895379                       # average WriteReq mshr miss latency
system.cpu.dcache.power_state.pwrStateResidencyTicks::UNDEFINED 246463131250                       # Cumulative time (in ticks) in various power states
system.cpu.dcache.tags.tagsinuse           252.473015                       # Cycle average of tags in use
system.cpu.dcache.tags.total_refs               81762                       # Total number of references to valid blocks.
system.cpu.dcache.tags.sampled_refs             32220                       # Sample count of references to valid blocks.
system.cpu.dcache.tags.avg_refs              2.537616                       # Average number of references to valid blocks.
system.cpu.dcache.tags.warmup_cycle      245999123662                       # Cycle when the warmup percentage was hit.
system.cpu.dcache.tags.occ_blocks::.cpu.data     3.052742                       # Average occupied blocks per requestor
system.cpu.dcache.tags.occ_blocks::.switch_cpus.data   249.420273                       # Average occupied blocks per requestor
system.cpu.dcache.tags.occ_percent::.cpu.data     0.011925                       # Average percentage of cache occupancy
system.cpu.dcache.tags.occ_percent::.switch_cpus.data     0.974298                       # Average percentage of cache occupancy
system.cpu.dcache.tags.occ_percent::total     0.986223                       # Average percentage of cache occupancy
system.cpu.dcache.tags.occ_task_id_blocks::1024          256                       # Occupied blocks per task id
system.cpu.dcache.tags.age_task_id_blocks_1024::0          252                       # Occupied blocks per task id
system.cpu.dcache.tags.age_task_id_blocks_1024::1            1                       # Occupied blocks per task id
system.cpu.dcache.tags.age_task_id_blocks_1024::2            3                       # Occupied blocks per task id
system.cpu.dcache.tags.occ_task_id_percent::1024            1                       # Percentage of cache occupancy per task id
system.cpu.dcache.tags.tag_accesses           2300204                       # Number of tag accesses
system.cpu.dcache.tags.data_accesses          2300204                       # Number of data accesses
system.cpu.dcache.tags.power_state.pwrStateResidencyTicks::UNDEFINED 246463131250                       # Cumulative time (in ticks) in various power states
system.cpu.dtb.instHits                             0                       # ITB inst hits
system.cpu.dtb.instMisses                           0                       # ITB inst misses
system.cpu.dtb.readHits                             0                       # DTB read hits
system.cpu.dtb.readMisses                           0                       # DTB read misses
system.cpu.dtb.writeHits                            0                       # DTB write hits
system.cpu.dtb.writeMisses                          0                       # DTB write misses
system.cpu.dtb.inserts                              0                       # Number of times an entry is inserted into the TLB
system.cpu.dtb.flushTlb                             2                       # Number of times complete TLB was flushed
system.cpu.dtb.flushTlbMva                          0                       # Number of times TLB was flushed by MVA
system.cpu.dtb.flushTlbMvaAsid                      0                       # Number of times TLB was flushed by MVA & ASID
system.cpu.dtb.flushTlbAsid                         0                       # Number of times TLB was flushed by ASID
system.cpu.dtb.flushedEntries                       0                       # Number of entries that have been flushed from TLB
system.cpu.dtb.alignFaults                          0                       # Number of TLB faults due to alignment restrictions
system.cpu.dtb.prefetchFaults                       0                       # Number of TLB faults due to prefetch
system.cpu.dtb.domainFaults                         0                       # Number of TLB faults due to domain restrictions
system.cpu.dtb.permsFaults                          0                       # Number of TLB faults due to permissions restrictions
system.cpu.dtb.readAccesses                         0                       # DTB read accesses
system.cpu.dtb.writeAccesses                        0                       # DTB write accesses
system.cpu.dtb.instAccesses                         0                       # ITB inst accesses
system.cpu.dtb.hits                                 0                       # Total TLB (inst and data) hits
system.cpu.dtb.misses                               0                       # Total TLB (inst and data) misses
system.cpu.dtb.accesses                             0                       # Total TLB (inst and data) accesses
system.cpu.dtb.stage2_mmu.stage2_tlb.instHits            0                       # ITB inst hits
system.cpu.dtb.stage2_mmu.stage2_tlb.instMisses            0                       # ITB inst misses
system.cpu.dtb.stage2_mmu.stage2_tlb.readHits            0                       # DTB read hits
system.cpu.dtb.stage2_mmu.stage2_tlb.readMisses            0                       # DTB read misses
system.cpu.dtb.stage2_mmu.stage2_tlb.writeHits            0                       # DTB write hits
system.cpu.dtb.stage2_mmu.stage2_tlb.writeMisses            0                       # DTB write misses
system.cpu.dtb.stage2_mmu.stage2_tlb.inserts            0                       # Number of times an entry is inserted into the TLB
system.cpu.dtb.stage2_mmu.stage2_tlb.flushTlb            0                       # Number of times complete TLB was flushed
system.cpu.dtb.stage2_mmu.stage2_tlb.flushTlbMva            0                       # Number of times TLB was flushed by MVA
system.cpu.dtb.stage2_mmu.stage2_tlb.flushTlbMvaAsid            0                       # Number of times TLB was flushed by MVA & ASID
system.cpu.dtb.stage2_mmu.stage2_tlb.flushTlbAsid            0                       # Number of times TLB was flushed by ASID
system.cpu.dtb.stage2_mmu.stage2_tlb.flushedEntries            0                       # Number of entries that have been flushed from TLB
system.cpu.dtb.stage2_mmu.stage2_tlb.alignFaults            0                       # Number of TLB faults due to alignment restrictions
system.cpu.dtb.stage2_mmu.stage2_tlb.prefetchFaults            0                       # Number of TLB faults due to prefetch
system.cpu.dtb.stage2_mmu.stage2_tlb.domainFaults            0                       # Number of TLB faults due to domain restrictions
system.cpu.dtb.stage2_mmu.stage2_tlb.permsFaults            0                       # Number of TLB faults due to permissions restrictions
system.cpu.dtb.stage2_mmu.stage2_tlb.readAccesses            0                       # DTB read accesses
system.cpu.dtb.stage2_mmu.stage2_tlb.writeAccesses            0                       # DTB write accesses
system.cpu.dtb.stage2_mmu.stage2_tlb.instAccesses            0                       # ITB inst accesses
system.cpu.dtb.stage2_mmu.stage2_tlb.hits            0                       # Total TLB (inst and data) hits
system.cpu.dtb.stage2_mmu.stage2_tlb.misses            0                       # Total TLB (inst and data) misses
system.cpu.dtb.stage2_mmu.stage2_tlb.accesses            0                       # Total TLB (inst and data) accesses
system.cpu.dtb.stage2_mmu.stage2_tlb.walker.walks            0                       # Table walker walks requested
system.cpu.dtb.stage2_mmu.stage2_tlb.walker.requestOrigin_Requested::Data            0                       # Table walker requests started/completed, data/inst
system.cpu.dtb.stage2_mmu.stage2_tlb.walker.requestOrigin_Requested::Inst            0                       # Table walker requests started/completed, data/inst
system.cpu.dtb.stage2_mmu.stage2_tlb.walker.requestOrigin_Requested::total            0                       # Table walker requests started/completed, data/inst
system.cpu.dtb.stage2_mmu.stage2_tlb.walker.requestOrigin_Completed::Data            0                       # Table walker requests started/completed, data/inst
system.cpu.dtb.stage2_mmu.stage2_tlb.walker.requestOrigin_Completed::Inst            0                       # Table walker requests started/completed, data/inst
system.cpu.dtb.stage2_mmu.stage2_tlb.walker.requestOrigin_Completed::total            0                       # Table walker requests started/completed, data/inst
system.cpu.dtb.stage2_mmu.stage2_tlb.walker.requestOrigin::total            0                       # Table walker requests started/completed, data/inst
system.cpu.dtb.stage2_mmu.stage2_tlb.walker.power_state.pwrStateResidencyTicks::UNDEFINED 246463131250                       # Cumulative time (in ticks) in various power states
system.cpu.dtb.walker.walks                         0                       # Table walker walks requested
system.cpu.dtb.walker.requestOrigin_Requested::Data            0                       # Table walker requests started/completed, data/inst
system.cpu.dtb.walker.requestOrigin_Requested::Inst            0                       # Table walker requests started/completed, data/inst
system.cpu.dtb.walker.requestOrigin_Requested::total            0                       # Table walker requests started/completed, data/inst
system.cpu.dtb.walker.requestOrigin_Completed::Data            0                       # Table walker requests started/completed, data/inst
system.cpu.dtb.walker.requestOrigin_Completed::Inst            0                       # Table walker requests started/completed, data/inst
system.cpu.dtb.walker.requestOrigin_Completed::total            0                       # Table walker requests started/completed, data/inst
system.cpu.dtb.walker.requestOrigin::total            0                       # Table walker requests started/completed, data/inst
system.cpu.dtb.walker.power_state.pwrStateResidencyTicks::UNDEFINED 246463131250                       # Cumulative time (in ticks) in various power states
system.cpu.icache.demand_hits::.cpu.inst           26                       # number of demand (read+write) hits
system.cpu.icache.demand_hits::.switch_cpus.inst       144938                       # number of demand (read+write) hits
system.cpu.icache.demand_hits::total           144964                       # number of demand (read+write) hits
system.cpu.icache.overall_hits::.cpu.inst           26                       # number of overall hits
system.cpu.icache.overall_hits::.switch_cpus.inst       144938                       # number of overall hits
system.cpu.icache.overall_hits::total          144964                       # number of overall hits
system.cpu.icache.demand_misses::.cpu.inst            4                       # number of demand (read+write) misses
system.cpu.icache.demand_misses::.switch_cpus.inst            4                       # number of demand (read+write) misses
system.cpu.icache.demand_misses::total              8                       # number of demand (read+write) misses
system.cpu.icache.overall_misses::.cpu.inst            4                       # number of overall misses
system.cpu.icache.overall_misses::.switch_cpus.inst            4                       # number of overall misses
system.cpu.icache.overall_misses::total             8                       # number of overall misses
system.cpu.icache.demand_miss_latency::.switch_cpus.inst       235467                       # number of demand (read+write) miss cycles
system.cpu.icache.demand_miss_latency::total       235467                       # number of demand (read+write) miss cycles
system.cpu.icache.overall_miss_latency::.switch_cpus.inst       235467                       # number of overall miss cycles
system.cpu.icache.overall_miss_latency::total       235467                       # number of overall miss cycles
system.cpu.icache.demand_accesses::.cpu.inst           30                       # number of demand (read+write) accesses
system.cpu.icache.demand_accesses::.switch_cpus.inst       144942                       # number of demand (read+write) accesses
system.cpu.icache.demand_accesses::total       144972                       # number of demand (read+write) accesses
system.cpu.icache.overall_accesses::.cpu.inst           30                       # number of overall (read+write) accesses
system.cpu.icache.overall_accesses::.switch_cpus.inst       144942                       # number of overall (read+write) accesses
system.cpu.icache.overall_accesses::total       144972                       # number of overall (read+write) accesses
system.cpu.icache.demand_miss_rate::.cpu.inst     0.133333                       # miss rate for demand accesses
system.cpu.icache.demand_miss_rate::.switch_cpus.inst     0.000028                       # miss rate for demand accesses
system.cpu.icache.demand_miss_rate::total     0.000055                       # miss rate for demand accesses
system.cpu.icache.overall_miss_rate::.cpu.inst     0.133333                       # miss rate for overall accesses
system.cpu.icache.overall_miss_rate::.switch_cpus.inst     0.000028                       # miss rate for overall accesses
system.cpu.icache.overall_miss_rate::total     0.000055                       # miss rate for overall accesses
system.cpu.icache.demand_avg_miss_latency::.switch_cpus.inst 58866.750000                       # average overall miss latency
system.cpu.icache.demand_avg_miss_latency::total 29433.375000                       # average overall miss latency
system.cpu.icache.overall_avg_miss_latency::.switch_cpus.inst 58866.750000                       # average overall miss latency
system.cpu.icache.overall_avg_miss_latency::total 29433.375000                       # average overall miss latency
system.cpu.icache.blocked_cycles::no_mshrs            0                       # number of cycles access was blocked
system.cpu.icache.blocked_cycles::no_targets            0                       # number of cycles access was blocked
system.cpu.icache.blocked::no_mshrs                 0                       # number of cycles access was blocked
system.cpu.icache.blocked::no_targets               0                       # number of cycles access was blocked
system.cpu.icache.avg_blocked_cycles::no_mshrs          nan                       # average number of cycles each access was blocked
system.cpu.icache.avg_blocked_cycles::no_targets          nan                       # average number of cycles each access was blocked
system.cpu.icache.demand_mshr_hits::.switch_cpus.inst            3                       # number of demand (read+write) MSHR hits
system.cpu.icache.demand_mshr_hits::total            3                       # number of demand (read+write) MSHR hits
system.cpu.icache.overall_mshr_hits::.switch_cpus.inst            3                       # number of overall MSHR hits
system.cpu.icache.overall_mshr_hits::total            3                       # number of overall MSHR hits
system.cpu.icache.demand_mshr_misses::.switch_cpus.inst            1                       # number of demand (read+write) MSHR misses
system.cpu.icache.demand_mshr_misses::total            1                       # number of demand (read+write) MSHR misses
system.cpu.icache.overall_mshr_misses::.switch_cpus.inst            1                       # number of overall MSHR misses
system.cpu.icache.overall_mshr_misses::total            1                       # number of overall MSHR misses
system.cpu.icache.demand_mshr_miss_latency::.switch_cpus.inst        86887                       # number of demand (read+write) MSHR miss cycles
system.cpu.icache.demand_mshr_miss_latency::total        86887                       # number of demand (read+write) MSHR miss cycles
system.cpu.icache.overall_mshr_miss_latency::.switch_cpus.inst        86887                       # number of overall MSHR miss cycles
system.cpu.icache.overall_mshr_miss_latency::total        86887                       # number of overall MSHR miss cycles
system.cpu.icache.demand_mshr_miss_rate::.switch_cpus.inst     0.000007                       # mshr miss rate for demand accesses
system.cpu.icache.demand_mshr_miss_rate::total     0.000007                       # mshr miss rate for demand accesses
system.cpu.icache.overall_mshr_miss_rate::.switch_cpus.inst     0.000007                       # mshr miss rate for overall accesses
system.cpu.icache.overall_mshr_miss_rate::total     0.000007                       # mshr miss rate for overall accesses
system.cpu.icache.demand_avg_mshr_miss_latency::.switch_cpus.inst        86887                       # average overall mshr miss latency
system.cpu.icache.demand_avg_mshr_miss_latency::total        86887                       # average overall mshr miss latency
system.cpu.icache.overall_avg_mshr_miss_latency::.switch_cpus.inst        86887                       # average overall mshr miss latency
system.cpu.icache.overall_avg_mshr_miss_latency::total        86887                       # average overall mshr miss latency
system.cpu.icache.replacements                      0                       # number of replacements
system.cpu.icache.ReadReq_hits::.cpu.inst           26                       # number of ReadReq hits
system.cpu.icache.ReadReq_hits::.switch_cpus.inst       144938                       # number of ReadReq hits
system.cpu.icache.ReadReq_hits::total          144964                       # number of ReadReq hits
system.cpu.icache.ReadReq_misses::.cpu.inst            4                       # number of ReadReq misses
system.cpu.icache.ReadReq_misses::.switch_cpus.inst            4                       # number of ReadReq misses
system.cpu.icache.ReadReq_misses::total             8                       # number of ReadReq misses
system.cpu.icache.ReadReq_miss_latency::.switch_cpus.inst       235467                       # number of ReadReq miss cycles
system.cpu.icache.ReadReq_miss_latency::total       235467                       # number of ReadReq miss cycles
system.cpu.icache.ReadReq_accesses::.cpu.inst           30                       # number of ReadReq accesses(hits+misses)
system.cpu.icache.ReadReq_accesses::.switch_cpus.inst       144942                       # number of ReadReq accesses(hits+misses)
system.cpu.icache.ReadReq_accesses::total       144972                       # number of ReadReq accesses(hits+misses)
system.cpu.icache.ReadReq_miss_rate::.cpu.inst     0.133333                       # miss rate for ReadReq accesses
system.cpu.icache.ReadReq_miss_rate::.switch_cpus.inst     0.000028                       # miss rate for ReadReq accesses
system.cpu.icache.ReadReq_miss_rate::total     0.000055                       # miss rate for ReadReq accesses
system.cpu.icache.ReadReq_avg_miss_latency::.switch_cpus.inst 58866.750000                       # average ReadReq miss latency
system.cpu.icache.ReadReq_avg_miss_latency::total 29433.375000                       # average ReadReq miss latency
system.cpu.icache.ReadReq_mshr_hits::.switch_cpus.inst            3                       # number of ReadReq MSHR hits
system.cpu.icache.ReadReq_mshr_hits::total            3                       # number of ReadReq MSHR hits
system.cpu.icache.ReadReq_mshr_misses::.switch_cpus.inst            1                       # number of ReadReq MSHR misses
system.cpu.icache.ReadReq_mshr_misses::total            1                       # number of ReadReq MSHR misses
system.cpu.icache.ReadReq_mshr_miss_latency::.switch_cpus.inst        86887                       # number of ReadReq MSHR miss cycles
system.cpu.icache.ReadReq_mshr_miss_latency::total        86887                       # number of ReadReq MSHR miss cycles
system.cpu.icache.ReadReq_mshr_miss_rate::.switch_cpus.inst     0.000007                       # mshr miss rate for ReadReq accesses
system.cpu.icache.ReadReq_mshr_miss_rate::total     0.000007                       # mshr miss rate for ReadReq accesses
system.cpu.icache.ReadReq_avg_mshr_miss_latency::.switch_cpus.inst        86887                       # average ReadReq mshr miss latency
system.cpu.icache.ReadReq_avg_mshr_miss_latency::total        86887                       # average ReadReq mshr miss latency
system.cpu.icache.power_state.pwrStateResidencyTicks::UNDEFINED 246463131250                       # Cumulative time (in ticks) in various power states
system.cpu.icache.tags.tagsinuse             4.999616                       # Cycle average of tags in use
system.cpu.icache.tags.total_refs                   0                       # Total number of references to valid blocks.
system.cpu.icache.tags.sampled_refs                 0                       # Sample count of references to valid blocks.
system.cpu.icache.tags.avg_refs                   nan                       # Average number of references to valid blocks.
system.cpu.icache.tags.warmup_cycle      245999123662                       # Cycle when the warmup percentage was hit.
system.cpu.icache.tags.occ_blocks::.cpu.inst     3.999958                       # Average occupied blocks per requestor
system.cpu.icache.tags.occ_blocks::.switch_cpus.inst     0.999658                       # Average occupied blocks per requestor
system.cpu.icache.tags.occ_percent::.cpu.inst     0.007812                       # Average percentage of cache occupancy
system.cpu.icache.tags.occ_percent::.switch_cpus.inst     0.001952                       # Average percentage of cache occupancy
system.cpu.icache.tags.occ_percent::total     0.009765                       # Average percentage of cache occupancy
system.cpu.icache.tags.occ_task_id_blocks::1024            5                       # Occupied blocks per task id
system.cpu.icache.tags.age_task_id_blocks_1024::2            5                       # Occupied blocks per task id
system.cpu.icache.tags.occ_task_id_percent::1024     0.009766                       # Percentage of cache occupancy per task id
system.cpu.icache.tags.tag_accesses           1159781                       # Number of tag accesses
system.cpu.icache.tags.data_accesses          1159781                       # Number of data accesses
system.cpu.icache.tags.power_state.pwrStateResidencyTicks::UNDEFINED 246463131250                       # Cumulative time (in ticks) in various power states
system.cpu.itb.instHits                             0                       # ITB inst hits
system.cpu.itb.instMisses                           0                       # ITB inst misses
system.cpu.itb.readHits                             0                       # DTB read hits
system.cpu.itb.readMisses                           0                       # DTB read misses
system.cpu.itb.writeHits                            0                       # DTB write hits
system.cpu.itb.writeMisses                          0                       # DTB write misses
system.cpu.itb.inserts                              0                       # Number of times an entry is inserted into the TLB
system.cpu.itb.flushTlb                             2                       # Number of times complete TLB was flushed
system.cpu.itb.flushTlbMva                          0                       # Number of times TLB was flushed by MVA
system.cpu.itb.flushTlbMvaAsid                      0                       # Number of times TLB was flushed by MVA & ASID
system.cpu.itb.flushTlbAsid                         0                       # Number of times TLB was flushed by ASID
system.cpu.itb.flushedEntries                       0                       # Number of entries that have been flushed from TLB
system.cpu.itb.alignFaults                          0                       # Number of TLB faults due to alignment restrictions
system.cpu.itb.prefetchFaults                       0                       # Number of TLB faults due to prefetch
system.cpu.itb.domainFaults                         0                       # Number of TLB faults due to domain restrictions
system.cpu.itb.permsFaults                          0                       # Number of TLB faults due to permissions restrictions
system.cpu.itb.readAccesses                         0                       # DTB read accesses
system.cpu.itb.writeAccesses                        0                       # DTB write accesses
system.cpu.itb.instAccesses                         0                       # ITB inst accesses
system.cpu.itb.hits                                 0                       # Total TLB (inst and data) hits
system.cpu.itb.misses                               0                       # Total TLB (inst and data) misses
system.cpu.itb.accesses                             0                       # Total TLB (inst and data) accesses
system.cpu.itb.stage2_mmu.stage2_tlb.instHits            0                       # ITB inst hits
system.cpu.itb.stage2_mmu.stage2_tlb.instMisses            0                       # ITB inst misses
system.cpu.itb.stage2_mmu.stage2_tlb.readHits            0                       # DTB read hits
system.cpu.itb.stage2_mmu.stage2_tlb.readMisses            0                       # DTB read misses
system.cpu.itb.stage2_mmu.stage2_tlb.writeHits            0                       # DTB write hits
system.cpu.itb.stage2_mmu.stage2_tlb.writeMisses            0                       # DTB write misses
system.cpu.itb.stage2_mmu.stage2_tlb.inserts            0                       # Number of times an entry is inserted into the TLB
system.cpu.itb.stage2_mmu.stage2_tlb.flushTlb            0                       # Number of times complete TLB was flushed
system.cpu.itb.stage2_mmu.stage2_tlb.flushTlbMva            0                       # Number of times TLB was flushed by MVA
system.cpu.itb.stage2_mmu.stage2_tlb.flushTlbMvaAsid            0                       # Number of times TLB was flushed by MVA & ASID
system.cpu.itb.stage2_mmu.stage2_tlb.flushTlbAsid            0                       # Number of times TLB was flushed by ASID
system.cpu.itb.stage2_mmu.stage2_tlb.flushedEntries            0                       # Number of entries that have been flushed from TLB
system.cpu.itb.stage2_mmu.stage2_tlb.alignFaults            0                       # Number of TLB faults due to alignment restrictions
system.cpu.itb.stage2_mmu.stage2_tlb.prefetchFaults            0                       # Number of TLB faults due to prefetch
system.cpu.itb.stage2_mmu.stage2_tlb.domainFaults            0                       # Number of TLB faults due to domain restrictions
system.cpu.itb.stage2_mmu.stage2_tlb.permsFaults            0                       # Number of TLB faults due to permissions restrictions
system.cpu.itb.stage2_mmu.stage2_tlb.readAccesses            0                       # DTB read accesses
system.cpu.itb.stage2_mmu.stage2_tlb.writeAccesses            0                       # DTB write accesses
system.cpu.itb.stage2_mmu.stage2_tlb.instAccesses            0                       # ITB inst accesses
system.cpu.itb.stage2_mmu.stage2_tlb.hits            0                       # Total TLB (inst and data) hits
system.cpu.itb.stage2_mmu.stage2_tlb.misses            0                       # Total TLB (inst and data) misses
system.cpu.itb.stage2_mmu.stage2_tlb.accesses            0                       # Total TLB (inst and data) accesses
system.cpu.itb.stage2_mmu.stage2_tlb.walker.walks            0                       # Table walker walks requested
system.cpu.itb.stage2_mmu.stage2_tlb.walker.requestOrigin_Requested::Data            0                       # Table walker requests started/completed, data/inst
system.cpu.itb.stage2_mmu.stage2_tlb.walker.requestOrigin_Requested::Inst            0                       # Table walker requests started/completed, data/inst
system.cpu.itb.stage2_mmu.stage2_tlb.walker.requestOrigin_Requested::total            0                       # Table walker requests started/completed, data/inst
system.cpu.itb.stage2_mmu.stage2_tlb.walker.requestOrigin_Completed::Data            0                       # Table walker requests started/completed, data/inst
system.cpu.itb.stage2_mmu.stage2_tlb.walker.requestOrigin_Completed::Inst            0                       # Table walker requests started/completed, data/inst
system.cpu.itb.stage2_mmu.stage2_tlb.walker.requestOrigin_Completed::total            0                       # Table walker requests started/completed, data/inst
system.cpu.itb.stage2_mmu.stage2_tlb.walker.requestOrigin::total            0                       # Table walker requests started/completed, data/inst
system.cpu.itb.stage2_mmu.stage2_tlb.walker.power_state.pwrStateResidencyTicks::UNDEFINED 246463131250                       # Cumulative time (in ticks) in various power states
system.cpu.itb.walker.walks                         0                       # Table walker walks requested
system.cpu.itb.walker.requestOrigin_Requested::Data            0                       # Table walker requests started/completed, data/inst
system.cpu.itb.walker.requestOrigin_Requested::Inst            0                       # Table walker requests started/completed, data/inst
system.cpu.itb.walker.requestOrigin_Requested::total            0                       # Table walker requests started/completed, data/inst
system.cpu.itb.walker.requestOrigin_Completed::Data            0                       # Table walker requests started/completed, data/inst
system.cpu.itb.walker.requestOrigin_Completed::Inst            0                       # Table walker requests started/completed, data/inst
system.cpu.itb.walker.requestOrigin_Completed::total            0                       # Table walker requests started/completed, data/inst
system.cpu.itb.walker.requestOrigin::total            0                       # Table walker requests started/completed, data/inst
system.cpu.itb.walker.power_state.pwrStateResidencyTicks::UNDEFINED 246463131250                       # Cumulative time (in ticks) in various power states
system.cpu.power_state.numTransitions               1                       # Number of power state transitions
system.cpu.power_state.pwrStateResidencyTicks::ON 245999133200                       # Cumulative time (in ticks) in various power states
system.cpu.power_state.pwrStateResidencyTicks::OFF    463998050                       # Cumulative time (in ticks) in various power states
system.cpu.thread_0.numInsts                        0                       # Number of Instructions committed
system.cpu.thread_0.numOps                          0                       # Number of Ops committed
system.cpu.thread_0.numMemRefs                      0                       # Number of Memory References
system.cpu_clk_domain.clock                       323                       # Clock period in ticks
system.cpu_voltage_domain.voltage                   1                       # Voltage in Volts
system.l2.demand_hits::.switch_cpus.data        26791                       # number of demand (read+write) hits
system.l2.demand_hits::total                    26791                       # number of demand (read+write) hits
system.l2.overall_hits::.switch_cpus.data        26791                       # number of overall hits
system.l2.overall_hits::total                   26791                       # number of overall hits
system.l2.demand_misses::.cpu.inst                  4                       # number of demand (read+write) misses
system.l2.demand_misses::.cpu.data                  5                       # number of demand (read+write) misses
system.l2.demand_misses::.switch_cpus.inst            1                       # number of demand (read+write) misses
system.l2.demand_misses::.switch_cpus.data         5681                       # number of demand (read+write) misses
[...]
system.switch_cpus.dtb.walker.requestOrigin::total            0                       # Table walker requests started/completed, data/inst
system.switch_cpus.dtb.walker.power_state.pwrStateResidencyTicks::UNDEFINED   2680191661                       # Cumulative time (in ticks) in various power states
system.switch_cpus.fetch.icacheStallCycles      2089233                       # Number of cycles fetch is stalled on an Icache miss
system.switch_cpus.fetch.insts               13032207                       # Number of instructions fetch has processed
system.switch_cpus.fetch.branches             2222413                       # Number of branches that fetch encountered
system.switch_cpus.fetch.predictedBranches      1512030                       # Number of branches that fetch has predicted taken
system.switch_cpus.fetch.cycles               6097968                       # Number of cycles fetch has run and was not squashing or blocked
system.switch_cpus.fetch.squashCycles          186714                       # Number of cycles fetch has spent squashing
system.switch_cpus.fetch.miscStallCycles            2                       # Number of cycles fetch has spent waiting on interrupts,or bad addresses, or out of MSHRs
system.switch_cpus.fetch.pendingTrapStallCycles           59                       # Number of stall cycles due to pending traps
system.switch_cpus.fetch.cacheLines           2033382                       # Number of cache lines fetched
system.switch_cpus.fetch.icacheSquashes         33919                       # Number of outstanding Icache misses that were squashed
system.switch_cpus.fetch.nisnDist::samples      8280619                       # Number of instructions fetched each cycle (Total)
system.switch_cpus.fetch.nisnDist::mean      1.707012                       # Number of instructions fetched each cycle (Total)
system.switch_cpus.fetch.nisnDist::stdev     2.740781                       # Number of instructions fetched each cycle (Total)
system.switch_cpus.fetch.nisnDist::underflows            0      0.00%      0.00% # Number of instructions fetched each cycle (Total)
system.switch_cpus.fetch.nisnDist::0          5376332     64.93%     64.93% # Number of instructions fetched each cycle (Total)
system.switch_cpus.fetch.nisnDist::1           172127      2.08%     67.01% # Number of instructions fetched each cycle (Total)
system.switch_cpus.fetch.nisnDist::2           555269      6.71%     73.71% # Number of instructions fetched each cycle (Total)
system.switch_cpus.fetch.nisnDist::3           380534      4.60%     78.31% # Number of instructions fetched each cycle (Total)
system.switch_cpus.fetch.nisnDist::4           234767      2.84%     81.14% # Number of instructions fetched each cycle (Total)
system.switch_cpus.fetch.nisnDist::5           353111      4.26%     85.41% # Number of instructions fetched each cycle (Total)
system.switch_cpus.fetch.nisnDist::6           255600      3.09%     88.49% # Number of instructions fetched each cycle (Total)
system.switch_cpus.fetch.nisnDist::7           150405      1.82%     90.31% # Number of instructions fetched each cycle (Total)
system.switch_cpus.fetch.nisnDist::8           802474      9.69%    100.00% # Number of instructions fetched each cycle (Total)
system.switch_cpus.fetch.nisnDist::overflows            0      0.00%    100.00% # Number of instructions fetched each cycle (Total)
system.switch_cpus.fetch.nisnDist::min_value            0                       # Number of instructions fetched each cycle (Total)
system.switch_cpus.fetch.nisnDist::max_value            8                       # Number of instructions fetched each cycle (Total)
system.switch_cpus.fetch.nisnDist::total      8280619                       # Number of instructions fetched each cycle (Total)
system.switch_cpus.fetch.branchRate          0.267831                       # Number of branch fetches per cycle
system.switch_cpus.fetch.rate                1.570560                       # Number of inst fetches per cycle
system.switch_cpus.itb.instHits                     0                       # ITB inst hits
system.switch_cpus.itb.instMisses                   0                       # ITB inst misses
system.switch_cpus.itb.readHits                     0                       # DTB read hits
system.switch_cpus.itb.readMisses                   0                       # DTB read misses
system.switch_cpus.itb.writeHits                    0                       # DTB write hits
system.switch_cpus.itb.writeMisses                  0                       # DTB write misses
system.switch_cpus.itb.inserts                      0                       # Number of times an entry is inserted into the TLB
system.switch_cpus.itb.flushTlb                     0                       # Number of times complete TLB was flushed
system.switch_cpus.itb.flushTlbMva                  0                       # Number of times TLB was flushed by MVA
system.switch_cpus.itb.flushTlbMvaAsid              0                       # Number of times TLB was flushed by MVA & ASID
system.switch_cpus.itb.flushTlbAsid                 0                       # Number of times TLB was flushed by ASID
system.switch_cpus.itb.flushedEntries               0                       # Number of entries that have been flushed from TLB
system.switch_cpus.itb.alignFaults                  0                       # Number of TLB faults due to alignment restrictions
system.switch_cpus.itb.prefetchFaults               0                       # Number of TLB faults due to prefetch
system.switch_cpus.itb.domainFaults                 0                       # Number of TLB faults due to domain restrictions
system.switch_cpus.itb.permsFaults                  0                       # Number of TLB faults due to permissions restrictions
system.switch_cpus.itb.readAccesses                 0                       # DTB read accesses
system.switch_cpus.itb.writeAccesses                0                       # DTB write accesses
system.switch_cpus.itb.instAccesses                 0                       # ITB inst accesses
system.switch_cpus.itb.hits                         0                       # Total TLB (inst and data) hits
system.switch_cpus.itb.misses                       0                       # Total TLB (inst and data) misses
system.switch_cpus.itb.accesses                     0                       # Total TLB (inst and data) accesses
system.switch_cpus.itb.stage2_mmu.stage2_tlb.instHits            0                       # ITB inst hits
system.switch_cpus.itb.stage2_mmu.stage2_tlb.instMisses            0                       # ITB inst misses
system.switch_cpus.itb.stage2_mmu.stage2_tlb.readHits            0                       # DTB read hits
system.switch_cpus.itb.stage2_mmu.stage2_tlb.readMisses            0                       # DTB read misses
system.switch_cpus.itb.stage2_mmu.stage2_tlb.writeHits            0                       # DTB write hits
system.switch_cpus.itb.stage2_mmu.stage2_tlb.writeMisses            0                       # DTB write misses
system.switch_cpus.itb.stage2_mmu.stage2_tlb.inserts            0                       # Number of times an entry is inserted into the TLB
system.switch_cpus.itb.stage2_mmu.stage2_tlb.flushTlb            0                       # Number of times complete TLB was flushed
system.switch_cpus.itb.stage2_mmu.stage2_tlb.flushTlbMva            0                       # Number of times TLB was flushed by MVA
system.switch_cpus.itb.stage2_mmu.stage2_tlb.flushTlbMvaAsid            0                       # Number of times TLB was flushed by MVA & ASID
system.switch_cpus.itb.stage2_mmu.stage2_tlb.flushTlbAsid            0                       # Number of times TLB was flushed by ASID
system.switch_cpus.itb.stage2_mmu.stage2_tlb.flushedEntries            0                       # Number of entries that have been flushed from TLB
system.switch_cpus.itb.stage2_mmu.stage2_tlb.alignFaults            0                       # Number of TLB faults due to alignment restrictions
system.switch_cpus.itb.stage2_mmu.stage2_tlb.prefetchFaults            0                       # Number of TLB faults due to prefetch
system.switch_cpus.itb.stage2_mmu.stage2_tlb.domainFaults            0                       # Number of TLB faults due to domain restrictions
system.switch_cpus.itb.stage2_mmu.stage2_tlb.permsFaults            0                       # Number of TLB faults due to permissions restrictions
system.switch_cpus.itb.stage2_mmu.stage2_tlb.readAccesses            0                       # DTB read accesses
system.switch_cpus.itb.stage2_mmu.stage2_tlb.writeAccesses            0                       # DTB write accesses
system.switch_cpus.itb.stage2_mmu.stage2_tlb.instAccesses            0                       # ITB inst accesses
system.switch_cpus.itb.stage2_mmu.stage2_tlb.hits            0                       # Total TLB (inst and data) hits
system.switch_cpus.itb.stage2_mmu.stage2_tlb.misses            0                       # Total TLB (inst and data) misses
system.switch_cpus.itb.stage2_mmu.stage2_tlb.accesses            0                       # Total TLB (inst and data) accesses
system.switch_cpus.itb.stage2_mmu.stage2_tlb.walker.walks            0                       # Table walker walks requested
system.switch_cpus.itb.stage2_mmu.stage2_tlb.walker.requestOrigin_Requested::Data            0                       # Table walker requests started/completed, data/inst
system.switch_cpus.itb.stage2_mmu.stage2_tlb.walker.requestOrigin_Requested::Inst            0                       # Table walker requests started/completed, data/inst
system.switch_cpus.itb.stage2_mmu.stage2_tlb.walker.requestOrigin_Requested::total            0                       # Table walker requests started/completed, data/inst
system.switch_cpus.itb.stage2_mmu.stage2_tlb.walker.requestOrigin_Completed::Data            0                       # Table walker requests started/completed, data/inst
system.switch_cpus.itb.stage2_mmu.stage2_tlb.walker.requestOrigin_Completed::Inst            0                       # Table walker requests started/completed, data/inst
system.switch_cpus.itb.stage2_mmu.stage2_tlb.walker.requestOrigin_Completed::total            0                       # Table walker requests started/completed, data/inst
system.switch_cpus.itb.stage2_mmu.stage2_tlb.walker.requestOrigin::total            0                       # Table walker requests started/completed, data/inst
system.switch_cpus.itb.stage2_mmu.stage2_tlb.walker.power_state.pwrStateResidencyTicks::UNDEFINED   2680191661                       # Cumulative time (in ticks) in various power states
system.switch_cpus.itb.walker.walks                 0                       # Table walker walks requested
system.switch_cpus.itb.walker.requestOrigin_Requested::Data            0                       # Table walker requests started/completed, data/inst
system.switch_cpus.itb.walker.requestOrigin_Requested::Inst            0                       # Table walker requests started/completed, data/inst
system.switch_cpus.itb.walker.requestOrigin_Requested::total            0                       # Table walker requests started/completed, data/inst
system.switch_cpus.itb.walker.requestOrigin_Completed::Data            0                       # Table walker requests started/completed, data/inst
system.switch_cpus.itb.walker.requestOrigin_Completed::Inst            0                       # Table walker requests started/completed, data/inst
system.switch_cpus.itb.walker.requestOrigin_Completed::total            0                       # Table walker requests started/completed, data/inst
system.switch_cpus.itb.walker.requestOrigin::total            0                       # Table walker requests started/completed, data/inst
system.switch_cpus.itb.walker.power_state.pwrStateResidencyTicks::UNDEFINED   2680191661                       # Cumulative time (in ticks) in various power states
system.switch_cpus.lsq0.forwLoads             1575579                       # Number of loads that had data forwarded from stores
system.switch_cpus.lsq0.squashedLoads          525393                       # Number of loads squashed
system.switch_cpus.lsq0.ignoredResponses          407                       # Number of memory responses ignored because the instruction is squashed
system.switch_cpus.lsq0.memOrderViolation          499                       # Number of memory ordering violations
system.switch_cpus.lsq0.squashedStores         308068                       # Number of stores squashed
system.switch_cpus.lsq0.rescheduledLoads         2478                       # Number of loads that were rescheduled
system.switch_cpus.lsq0.blockedByCache           2791                       # Number of times an access to memory failed due to the cache being blocked
system.switch_cpus.power_state.pwrStateResidencyTicks::OFF   2680191661                       # Cumulative time (in ticks) in various power states
system.switch_cpus.rename.squashCycles          93286                       # Number of cycles rename is squashing
system.switch_cpus.rename.idleCycles          1639979                       # Number of cycles rename is idle
system.switch_cpus.rename.blockCycles         1604397                       # Number of cycles rename is blocking
system.switch_cpus.rename.serializeStallCycles         4019                       # count of cycles rename stalledfor serializing inst
system.switch_cpus.rename.runCycles           2258698                       # Number of cycles rename is running
system.switch_cpus.rename.unblockCycles       2680240                       # Number of cycles rename is unblocking
system.switch_cpus.rename.renamedInsts       13700513                       # Number of instructions processed by rename
system.switch_cpus.rename.ROBFullEvents           390                       # Number of times rename has blocked due to ROB full
system.switch_cpus.rename.IQFullEvents         444368                       # Number of times rename has blocked due to IQ full
system.switch_cpus.rename.LQFullEvents        1407361                       # Number of times rename has blocked due to LQ full
system.switch_cpus.rename.SQFullEvents        1055431                       # Number of times rename has blocked due to SQ full
system.switch_cpus.rename.renamedOperands     13294794                       # Number of destination operands rename has renamed
system.switch_cpus.rename.lookups            18731007                       # Number of register rename lookups that rename has made
system.switch_cpus.rename.intLookups         15286856                       # Number of integer rename lookups
system.switch_cpus.rename.committedMaps      10405870                       # Number of HB maps that are committed
system.switch_cpus.rename.undoneMaps          2888980                       # Number of HB maps that are undone due to squashing
system.switch_cpus.rename.serializing             277                       # count of serializing insts renamed
system.switch_cpus.rename.tempSerializing            9                       # count of temporary serializing insts renamed
system.switch_cpus.rename.skidInsts           1798857                       # count of insts added to the skid buffer
system.switch_cpus.rob.reads                 20490573                       # The number of ROB reads
system.switch_cpus.rob.writes                26715530                       # The number of ROB writes
system.switch_cpus.thread_0.numInsts         10000003                       # Number of Instructions committed
system.switch_cpus.thread_0.numOps           10771439                       # Number of Ops committed
system.switch_cpus.thread_0.numMemRefs              0                       # Number of Memory References
system.tol2bus.trans_dist::ReadResp             77097                       # Transaction distribution
system.tol2bus.trans_dist::WritebackDirty       155006                       # Transaction distribution
system.tol2bus.trans_dist::CleanEvict           11604                       # Transaction distribution
system.tol2bus.trans_dist::HardPFReq             5385                       # Transaction distribution
system.tol2bus.trans_dist::ReadExReq            77287                       # Transaction distribution
system.tol2bus.trans_dist::ReadExResp           77287                       # Transaction distribution
system.tol2bus.trans_dist::ReadCleanReq           105                       # Transaction distribution
system.tol2bus.trans_dist::ReadSharedReq        76991                       # Transaction distribution
system.tol2bus.pkt_count_system.cpu.icache.mem_side_port::system.l2.cpu_side_port          210                       # Packet count per connected requestor and responder (bytes)
system.tol2bus.pkt_count_system.cpu.dcache.mem_side_port::system.l2.cpu_side_port       462836                       # Packet count per connected requestor and responder (bytes)
system.tol2bus.pkt_count::total                463046                       # Packet count per connected requestor and responder (bytes)
system.tol2bus.pkt_size_system.cpu.icache.mem_side_port::system.l2.cpu_side_port        13440                       # Cumulative packet size per connected requestor and responder (bytes)
system.tol2bus.pkt_size_system.cpu.dcache.mem_side_port::system.l2.cpu_side_port     38717056                       # Cumulative packet size per connected requestor and responder (bytes)
system.tol2bus.pkt_size::total               38730496                       # Cumulative packet size per connected requestor and responder (bytes)
system.tol2bus.snoops                           17716                       # Total snoops (count)
system.tol2bus.snoopTraffic                    871424                       # Total snoop traffic (bytes)
system.tol2bus.snoop_fanout::samples           172099                       # Request fanout histogram
system.tol2bus.snoop_fanout::mean            0.000046                       # Request fanout histogram
system.tol2bus.snoop_fanout::stdev           0.006818                       # Request fanout histogram
system.tol2bus.snoop_fanout::underflows             0      0.00%      0.00% # Request fanout histogram
system.tol2bus.snoop_fanout::0                 172091    100.00%    100.00% # Request fanout histogram
system.tol2bus.snoop_fanout::1                      8      0.00%    100.00% # Request fanout histogram
system.tol2bus.snoop_fanout::2                      0      0.00%    100.00% # Request fanout histogram
system.tol2bus.snoop_fanout::overflows              0      0.00%    100.00% # Request fanout histogram
system.tol2bus.snoop_fanout::min_value              0                       # Request fanout histogram
system.tol2bus.snoop_fanout::max_value              1                       # Request fanout histogram
system.tol2bus.snoop_fanout::total             172099                       # Request fanout histogram
system.tol2bus.power_state.pwrStateResidencyTicks::UNDEFINED   2680191661                       # Cumulative time (in ticks) in various power states
system.tol2bus.reqLayer0.occupancy          291169642                       # Layer occupancy (ticks)
system.tol2bus.reqLayer0.utilization             10.9                       # Layer utilization (%)
system.tol2bus.respLayer0.occupancy            169575                       # Layer occupancy (ticks)
system.tol2bus.respLayer0.utilization             0.0                       # Layer utilization (%)
system.tol2bus.respLayer1.occupancy         249160585                       # Layer occupancy (ticks)
system.tol2bus.respLayer1.utilization             9.3                       # Layer utilization (%)
system.voltage_domain.voltage                       1                       # Voltage in Volts

---------- End Simulation Statistics   ----------
