
---------- Begin Simulation Statistics ----------
final_tick                               130401049600                       # Number of ticks from beginning of simulation (restored from checkpoints and never reset)
host_inst_rate                                 302290                       # Simulator instruction rate (inst/s)
host_mem_usage                               16975244                       # Number of bytes of host memory used
host_op_rate                                   334078                       # Simulator op (including micro ops) rate (op/s)
host_seconds                                    33.08                       # Real time elapsed on the host
host_tick_rate                               67883014                       # Simulator tick rate (ticks/s)
sim_freq                                 1000000000000                       # Frequency of simulated ticks
sim_insts                                    10000025                       # Number of instructions simulated
sim_ops                                      11051631                       # Number of ops (including micro ops) simulated
sim_seconds                                  0.002246                       # Number of seconds simulated
sim_ticks                                  2245636400                       # Number of ticks simulated
system.cpu.Branches                                 2                       # Number of branches fetched
system.cpu.committedInsts                          24                       # Number of instructions committed
system.cpu.committedOps                            28                       # Number of ops (including micro ops) committed
system.cpu.idle_fraction                            0                       # Percentage of idle cycles
system.cpu.not_idle_fraction                        1                       # Percentage of non-idle cycles
system.cpu.numCycles                               28                       # number of cpu cycles simulated
system.cpu.numWorkItemsCompleted                    0                       # number of work items this cpu completed
system.cpu.numWorkItemsStarted                      0                       # number of work items this cpu started
system.cpu.num_busy_cycles                         28                       # Number of busy cycles
system.cpu.num_conditional_control_insts            0                       # number of instructions that are conditional controls
system.cpu.num_fp_alu_accesses                      0                       # Number of float alu accesses
system.cpu.num_fp_insts                             0                       # number of float instructions
system.cpu.num_fp_register_reads                    0                       # number of times the floating registers were read
system.cpu.num_fp_register_writes                   0                       # number of times the floating registers were written
system.cpu.num_func_calls                           2                       # number of times a function call or return occured
system.cpu.num_idle_cycles                          0                       # Number of idle cycles
system.cpu.num_int_alu_accesses                    28                       # Number of integer alu accesses
system.cpu.num_int_insts                           28                       # number of integer instructions
system.cpu.num_int_register_reads                  41                       # number of times the integer registers were read
system.cpu.num_int_register_writes                 26                       # number of times the integer registers were written
system.cpu.num_load_insts                           4                       # Number of load instructions
system.cpu.num_mem_refs                             6                       # number of memory refs
system.cpu.num_store_insts                          2                       # Number of store instructions
system.cpu.num_vec_alu_accesses                     0                       # Number of vector alu accesses
system.cpu.num_vec_insts                            0                       # number of vector instructions
system.cpu.num_vec_register_reads                   0                       # number of times the vector registers were read
system.cpu.num_vec_register_writes                  0                       # number of times the vector registers were written
system.cpu.op_class::No_OpClass                     0      0.00%      0.00% # Class of executed instruction
system.cpu.op_class::IntAlu                        20     71.43%     71.43% # Class of executed instruction
system.cpu.op_class::IntMult                        2      7.14%     78.57% # Class of executed instruction
system.cpu.op_class::IntDiv                         0      0.00%     78.57% # Class of executed instruction
system.cpu.op_class::FloatAdd                       0      0.00%     78.57% # Class of executed instruction
system.cpu.op_class::FloatCmp                       0      0.00%     78.57% # Class of executed instruction
system.cpu.op_class::FloatCvt                       0      0.00%     78.57% # Class of executed instruction
system.cpu.op_class::FloatMult                      0      0.00%     78.57% # Class of executed instruction
system.cpu.op_class::FloatMultAcc                   0      0.00%     78.57% # Class of executed instruction
system.cpu.op_class::FloatDiv                       0      0.00%     78.57% # Class of executed instruction
system.cpu.op_class::FloatMisc                      0      0.00%     78.57% # Class of executed instruction
system.cpu.op_class::FloatSqrt                      0      0.00%     78.57% # Class of executed instruction
system.cpu.op_class::SimdAdd                        0      0.00%     78.57% # Class of executed instruction
system.cpu.op_class::SimdAddAcc                     0      0.00%     78.57% # Class of executed instruction
system.cpu.op_class::SimdAlu                        0      0.00%     78.57% # Class of executed instruction
system.cpu.op_class::SimdCmp                        0      0.00%     78.57% # Class of executed instruction
system.cpu.op_class::SimdCvt                        0      0.00%     78.57% # Class of executed instruction
system.cpu.op_class::SimdMisc                       0      0.00%     78.57% # Class of executed instruction
system.cpu.op_class::SimdMult                       0      0.00%     78.57% # Class of executed instruction
system.cpu.op_class::SimdMultAcc                    0      0.00%     78.57% # Class of executed instruction
system.cpu.op_class::SimdShift                      0      0.00%     78.57% # Class of executed instruction
system.cpu.op_class::SimdShiftAcc                   0      0.00%     78.57% # Class of executed instruction
system.cpu.op_class::SimdDiv                        0      0.00%     78.57% # Class of executed instruction
system.cpu.op_class::SimdSqrt                       0      0.00%     78.57% # Class of executed instruction
system.cpu.op_class::SimdFloatAdd                   0      0.00%     78.57% # Class of executed instruction
system.cpu.op_class::SimdFloatAlu                   0      0.00%     78.57% # Class of executed instruction
system.cpu.op_class::SimdFloatCmp                   0      0.00%     78.57% # Class of executed instruction
system.cpu.op_class::SimdFloatCvt                   0      0.00%     78.57% # Class of executed instruction
system.cpu.op_class::SimdFloatDiv                   0      0.00%     78.57% # Class of executed instruction
system.cpu.op_class::SimdFloatMisc                  0      0.00%     78.57% # Class of executed instruction
system.cpu.op_class::SimdFloatMult                  0      0.00%     78.57% # Class of executed instruction
system.cpu.op_class::SimdFloatMultAcc               0      0.00%     78.57% # Class of executed instruction
system.cpu.op_class::SimdFloatSqrt                  0      0.00%     78.57% # Class of executed instruction
system.cpu.op_class::SimdReduceAdd                  0      0.00%     78.57% # Class of executed instruction
system.cpu.op_class::SimdReduceAlu                  0      0.00%     78.57% # Class of executed instruction
system.cpu.op_class::SimdReduceCmp                  0      0.00%     78.57% # Class of executed instruction
system.cpu.op_class::SimdFloatReduceAdd             0      0.00%     78.57% # Class of executed instruction
system.cpu.op_class::SimdFloatReduceCmp             0      0.00%     78.57% # Class of executed instruction
system.cpu.op_class::SimdAes                        0      0.00%     78.57% # Class of executed instruction
system.cpu.op_class::SimdAesMix                     0      0.00%     78.57% # Class of executed instruction
system.cpu.op_class::SimdSha1Hash                   0      0.00%     78.57% # Class of executed instruction
system.cpu.op_class::SimdSha1Hash2                  0      0.00%     78.57% # Class of executed instruction
system.cpu.op_class::SimdSha256Hash                 0      0.00%     78.57% # Class of executed instruction
system.cpu.op_class::SimdSha256Hash2                0      0.00%     78.57% # Class of executed instruction
system.cpu.op_class::SimdShaSigma2                  0      0.00%     78.57% # Class of executed instruction
system.cpu.op_class::SimdShaSigma3                  0      0.00%     78.57% # Class of executed instruction
system.cpu.op_class::SimdPredAlu                    0      0.00%     78.57% # Class of executed instruction
system.cpu.op_class::MemRead                        4     14.29%     92.86% # Class of executed instruction
system.cpu.op_class::MemWrite                       2      7.14%    100.00% # Class of executed instruction
system.cpu.op_class::FloatMemRead                   0      0.00%    100.00% # Class of executed instruction
system.cpu.op_class::FloatMemWrite                  0      0.00%    100.00% # Class of executed instruction
system.cpu.op_class::IprAccess                      0      0.00%    100.00% # Class of executed instruction
system.cpu.op_class::InstPrefetch                   0      0.00%    100.00% # Class of executed instruction
system.cpu.op_class::total                         28                       # Class of executed instruction
system.cpu.workload.numSyscalls                     0                       # Number of system calls
system.membus.snoop_filter.hit_multi_requests            0                       # Number of requests hitting in the snoop filter with multiple (>1) holders of the requested data.
system.membus.snoop_filter.hit_multi_snoops            0                       # Number of snoops hitting in the snoop filter with multiple (>1) holders of the requested data.
system.membus.snoop_filter.hit_single_requests            0                       # Number of requests hitting in the snoop filter with a single holder of the requested data.
system.membus.snoop_filter.hit_single_snoops            0                       # Number of snoops hitting in the snoop filter with a single holder of the requested data.
system.membus.snoop_filter.tot_requests           459                       # Total number of requests made to the snoop filter.
system.membus.snoop_filter.tot_snoops               0                       # Total number of snoops made to the snoop filter.
system.switch_cpus.cc_regfile_reads           2008872                       # number of cc regfile reads
system.switch_cpus.cc_regfile_writes          2016810                       # number of cc regfile writes
system.switch_cpus.committedInsts            10000001                       # Number of Instructions Simulated
system.switch_cpus.committedOps              11051603                       # Number of Ops (including micro ops) Simulated
system.switch_cpus.cpi                       0.561406                       # CPI: Cycles Per Instruction
system.switch_cpus.cpi_total                 0.561406                       # CPI: Total CPI of All Threads
system.switch_cpus.idleCycles                    2941                       # Total number of cycles that the CPU has spent unscheduled due to idling
system.switch_cpus.iew.branchMispredicts        27354                       # Number of branch mispredicts detected at execute
system.switch_cpus.iew.exec_branches          1318723                       # Number of branches executed
system.switch_cpus.iew.exec_nop                 44877                       # number of nop insts executed
system.switch_cpus.iew.exec_rate             2.253398                       # Inst execution rate
system.switch_cpus.iew.exec_refs              5781726                       # number of memory reference insts executed
system.switch_cpus.iew.exec_stores            2095343                       # Number of stores executed
system.switch_cpus.iew.exec_swp                     0                       # number of swp insts executed
system.switch_cpus.iew.iewBlockCycles          576385                       # Number of cycles IEW is blocking
system.switch_cpus.iew.iewDispLoadInsts       3736937                       # Number of dispatched load instructions
system.switch_cpus.iew.iewDispNonSpecInsts            0                       # Number of dispatched non-speculative instructions
system.switch_cpus.iew.iewDispSquashedInsts            0                       # Number of squashed instructions skipped by dispatch
system.switch_cpus.iew.iewDispStoreInsts      2359375                       # Number of dispatched store instructions
system.switch_cpus.iew.iewDispatchedInsts     13464901                       # Number of instructions dispatched to IQ
system.switch_cpus.iew.iewExecLoadInsts       3686383                       # Number of load instructions executed
system.switch_cpus.iew.iewExecSquashedInsts        63742                       # Number of squashed instructions skipped in execute
system.switch_cpus.iew.iewExecutedInsts      12650716                       # Number of executed instructions
system.switch_cpus.iew.iewIQFullEvents              0                       # Number of times the IQ has become full, causing a stall
system.switch_cpus.iew.iewIdleCycles                0                       # Number of cycles IEW is idle
system.switch_cpus.iew.iewLSQFullEvents             0                       # Number of times the LSQ has become full, causing a stall
system.switch_cpus.iew.iewSquashCycles          28573                       # Number of cycles IEW is squashing
system.switch_cpus.iew.iewUnblockCycles             0                       # Number of cycles IEW is unblocking
system.switch_cpus.iew.memOrderViolationEvents         1443                       # Number of memory order violations
system.switch_cpus.iew.predictedNotTakenIncorrect         9304                       # Number of branches that were predicted not taken incorrectly
system.switch_cpus.iew.predictedTakenIncorrect        18050                       # Number of branches that were predicted taken incorrectly
system.switch_cpus.iew.wb_consumers          13812444                       # num instructions consuming a value
system.switch_cpus.iew.wb_count              12418749                       # cumulative count of insts written-back
system.switch_cpus.iew.wb_fanout             0.647209                       # average fanout of values written-back
system.switch_cpus.iew.wb_producers           8939539                       # num instructions producing a value
system.switch_cpus.iew.wb_rate               2.212079                       # insts written-back per cycle
system.switch_cpus.iew.wb_sent               12433694                       # cumulative count of insts sent to commit
system.switch_cpus.int_regfile_reads         15887952                       # number of integer regfile reads
system.switch_cpus.int_regfile_writes         9651735                       # number of integer regfile writes
system.switch_cpus.ipc                       1.781241                       # IPC: Instructions Per Cycle
system.switch_cpus.ipc_total                 1.781241                       # IPC: Total IPC of All Threads
system.switch_cpus.iq.FU_type_0::No_OpClass           16      0.00%      0.00% # Type of FU issued
system.switch_cpus.iq.FU_type_0::IntAlu       6475648     50.93%     50.93% # Type of FU issued
system.switch_cpus.iq.FU_type_0::IntMult       396280      3.12%     54.05% # Type of FU issued
system.switch_cpus.iq.FU_type_0::IntDiv             0      0.00%     54.05% # Type of FU issued
system.switch_cpus.iq.FU_type_0::FloatAdd            0      0.00%     54.05% # Type of FU issued
system.switch_cpus.iq.FU_type_0::FloatCmp            0      0.00%     54.05% # Type of FU issued
system.switch_cpus.iq.FU_type_0::FloatCvt            0      0.00%     54.05% # Type of FU issued
system.switch_cpus.iq.FU_type_0::FloatMult            0      0.00%     54.05% # Type of FU issued
system.switch_cpus.iq.FU_type_0::FloatMultAcc            0      0.00%     54.05% # Type of FU issued
system.switch_cpus.iq.FU_type_0::FloatDiv            0      0.00%     54.05% # Type of FU issued
system.switch_cpus.iq.FU_type_0::FloatMisc            0      0.00%     54.05% # Type of FU issued
system.switch_cpus.iq.FU_type_0::FloatSqrt            0      0.00%     54.05% # Type of FU issued
system.switch_cpus.iq.FU_type_0::SimdAdd            0      0.00%     54.05% # Type of FU issued
system.switch_cpus.iq.FU_type_0::SimdAddAcc            0      0.00%     54.05% # Type of FU issued
system.switch_cpus.iq.FU_type_0::SimdAlu            0      0.00%     54.05% # Type of FU issued
system.switch_cpus.iq.FU_type_0::SimdCmp            0      0.00%     54.05% # Type of FU issued
system.switch_cpus.iq.FU_type_0::SimdCvt            0      0.00%     54.05% # Type of FU issued
system.switch_cpus.iq.FU_type_0::SimdMisc            0      0.00%     54.05% # Type of FU issued
system.switch_cpus.iq.FU_type_0::SimdMult            0      0.00%     54.05% # Type of FU issued
system.switch_cpus.iq.FU_type_0::SimdMultAcc            0      0.00%     54.05% # Type of FU issued
system.switch_cpus.iq.FU_type_0::SimdShift            0      0.00%     54.05% # Type of FU issued
system.switch_cpus.iq.FU_type_0::SimdShiftAcc            0      0.00%     54.05% # Type of FU issued
system.switch_cpus.iq.FU_type_0::SimdDiv            0      0.00%     54.05% # Type of FU issued
system.switch_cpus.iq.FU_type_0::SimdSqrt            0      0.00%     54.05% # Type of FU issued
system.switch_cpus.iq.FU_type_0::SimdFloatAdd            0      0.00%     54.05% # Type of FU issued
system.switch_cpus.iq.FU_type_0::SimdFloatAlu            0      0.00%     54.05% # Type of FU issued
system.switch_cpus.iq.FU_type_0::SimdFloatCmp            0      0.00%     54.05% # Type of FU issued
system.switch_cpus.iq.FU_type_0::SimdFloatCvt            0      0.00%     54.05% # Type of FU issued
system.switch_cpus.iq.FU_type_0::SimdFloatDiv            0      0.00%     54.05% # Type of FU issued
system.switch_cpus.iq.FU_type_0::SimdFloatMisc            0      0.00%     54.05% # Type of FU issued
system.switch_cpus.iq.FU_type_0::SimdFloatMult            0      0.00%     54.05% # Type of FU issued
system.switch_cpus.iq.FU_type_0::SimdFloatMultAcc            0      0.00%     54.05% # Type of FU issued
system.switch_cpus.iq.FU_type_0::SimdFloatSqrt            0      0.00%     54.05% # Type of FU issued
system.switch_cpus.iq.FU_type_0::SimdReduceAdd            0      0.00%     54.05% # Type of FU issued
system.switch_cpus.iq.FU_type_0::SimdReduceAlu            0      0.00%     54.05% # Type of FU issued
system.switch_cpus.iq.FU_type_0::SimdReduceCmp            0      0.00%     54.05% # Type of FU issued
system.switch_cpus.iq.FU_type_0::SimdFloatReduceAdd            0      0.00%     54.05% # Type of FU issued
system.switch_cpus.iq.FU_type_0::SimdFloatReduceCmp            0      0.00%     54.05% # Type of FU issued
system.switch_cpus.iq.FU_type_0::SimdAes            0      0.00%     54.05% # Type of FU issued
system.switch_cpus.iq.FU_type_0::SimdAesMix            0      0.00%     54.05% # Type of FU issued
system.switch_cpus.iq.FU_type_0::SimdSha1Hash            0      0.00%     54.05% # Type of FU issued
system.switch_cpus.iq.FU_type_0::SimdSha1Hash2            0      0.00%     54.05% # Type of FU issued
system.switch_cpus.iq.FU_type_0::SimdSha256Hash            0      0.00%     54.05% # Type of FU issued
system.switch_cpus.iq.FU_type_0::SimdSha256Hash2            0      0.00%     54.05% # Type of FU issued
system.switch_cpus.iq.FU_type_0::SimdShaSigma2            0      0.00%     54.05% # Type of FU issued
system.switch_cpus.iq.FU_type_0::SimdShaSigma3            0      0.00%     54.05% # Type of FU issued
system.switch_cpus.iq.FU_type_0::SimdPredAlu            0      0.00%     54.05% # Type of FU issued
system.switch_cpus.iq.FU_type_0::MemRead      3716152     29.23%     83.28% # Type of FU issued
system.switch_cpus.iq.FU_type_0::MemWrite      2126362     16.72%    100.00% # Type of FU issued
system.switch_cpus.iq.FU_type_0::FloatMemRead            0      0.00%    100.00% # Type of FU issued
system.switch_cpus.iq.FU_type_0::FloatMemWrite            0      0.00%    100.00% # Type of FU issued
system.switch_cpus.iq.FU_type_0::IprAccess            0      0.00%    100.00% # Type of FU issued
system.switch_cpus.iq.FU_type_0::InstPrefetch            0      0.00%    100.00% # Type of FU issued
system.switch_cpus.iq.FU_type_0::total       12714458                       # Type of FU issued
system.switch_cpus.iq.fp_alu_accesses               0                       # Number of floating point alu accesses
system.switch_cpus.iq.fp_inst_queue_reads            0                       # Number of floating instruction queue reads
system.switch_cpus.iq.fp_inst_queue_wakeup_accesses            0                       # Number of floating instruction queue wakeup accesses
system.switch_cpus.iq.fp_inst_queue_writes            0                       # Number of floating instruction queue writes
system.switch_cpus.iq.fu_busy_cnt             5630167                       # FU busy when requested
system.switch_cpus.iq.fu_busy_rate           0.442816                       # FU busy rate (busy events/executed inst)
system.switch_cpus.iq.fu_full::No_OpClass            0      0.00%      0.00% # attempts to use FU when none available
system.switch_cpus.iq.fu_full::IntAlu         1841342     32.70%     32.70% # attempts to use FU when none available
system.switch_cpus.iq.fu_full::IntMult           1622      0.03%     32.73% # attempts to use FU when none available
system.switch_cpus.iq.fu_full::IntDiv               0      0.00%     32.73% # attempts to use FU when none available
system.switch_cpus.iq.fu_full::FloatAdd             0      0.00%     32.73% # attempts to use FU when none available
system.switch_cpus.iq.fu_full::FloatCmp             0      0.00%     32.73% # attempts to use FU when none available
system.switch_cpus.iq.fu_full::FloatCvt             0      0.00%     32.73% # attempts to use FU when none available
system.switch_cpus.iq.fu_full::FloatMult            0      0.00%     32.73% # attempts to use FU when none available
system.switch_cpus.iq.fu_full::FloatMultAcc            0      0.00%     32.73% # attempts to use FU when none available
system.switch_cpus.iq.fu_full::FloatDiv             0      0.00%     32.73% # attempts to use FU when none available
system.switch_cpus.iq.fu_full::FloatMisc            0      0.00%     32.73% # attempts to use FU when none available
system.switch_cpus.iq.fu_full::FloatSqrt            0      0.00%     32.73% # attempts to use FU when none available
system.switch_cpus.iq.fu_full::SimdAdd              0      0.00%     32.73% # attempts to use FU when none available
system.switch_cpus.iq.fu_full::SimdAddAcc            0      0.00%     32.73% # attempts to use FU when none available
system.switch_cpus.iq.fu_full::SimdAlu              0      0.00%     32.73% # attempts to use FU when none available
system.switch_cpus.iq.fu_full::SimdCmp              0      0.00%     32.73% # attempts to use FU when none available
system.switch_cpus.iq.fu_full::SimdCvt              0      0.00%     32.73% # attempts to use FU when none available
system.switch_cpus.iq.fu_full::SimdMisc             0      0.00%     32.73% # attempts to use FU when none available
system.switch_cpus.iq.fu_full::SimdMult             0      0.00%     32.73% # attempts to use FU when none available
system.switch_cpus.iq.fu_full::SimdMultAcc            0      0.00%     32.73% # attempts to use FU when none available
system.switch_cpus.iq.fu_full::SimdShift            0      0.00%     32.73% # attempts to use FU when none available
system.switch_cpus.iq.fu_full::SimdShiftAcc            0      0.00%     32.73% # attempts to use FU when none available
system.switch_cpus.iq.fu_full::SimdDiv              0      0.00%     32.73% # attempts to use FU when none available
system.switch_cpus.iq.fu_full::SimdSqrt             0      0.00%     32.73% # attempts to use FU when none available
system.switch_cpus.iq.fu_full::SimdFloatAdd            0      0.00%     32.73% # attempts to use FU when none available
system.switch_cpus.iq.fu_full::SimdFloatAlu            0      0.00%     32.73% # attempts to use FU when none available
system.switch_cpus.iq.fu_full::SimdFloatCmp            0      0.00%     32.73% # attempts to use FU when none available
system.switch_cpus.iq.fu_full::SimdFloatCvt            0      0.00%     32.73% # attempts to use FU when none available
system.switch_cpus.iq.fu_full::SimdFloatDiv            0      0.00%     32.73% # attempts to use FU when none available
system.switch_cpus.iq.fu_full::SimdFloatMisc            0      0.00%     32.73% # attempts to use FU when none available
system.switch_cpus.iq.fu_full::SimdFloatMult            0      0.00%     32.73% # attempts to use FU when none available
system.switch_cpus.iq.fu_full::SimdFloatMultAcc            0      0.00%     32.73% # attempts to use FU when none available
system.switch_cpus.iq.fu_full::SimdFloatSqrt            0      0.00%     32.73% # attempts to use FU when none available
system.switch_cpus.iq.fu_full::SimdReduceAdd            0      0.00%     32.73% # attempts to use FU when none available
system.switch_cpus.iq.fu_full::SimdReduceAlu            0      0.00%     32.73% # attempts to use FU when none available
system.switch_cpus.iq.fu_full::SimdReduceCmp            0      0.00%     32.73% # attempts to use FU when none available
system.switch_cpus.iq.fu_full::SimdFloatReduceAdd            0      0.00%     32.73% # attempts to use FU when none available
system.switch_cpus.iq.fu_full::SimdFloatReduceCmp            0      0.00%     32.73% # attempts to use FU when none available
system.switch_cpus.iq.fu_full::SimdAes              0      0.00%     32.73% # attempts to use FU when none available
system.switch_cpus.iq.fu_full::SimdAesMix            0      0.00%     32.73% # attempts to use FU when none available
system.switch_cpus.iq.fu_full::SimdSha1Hash            0      0.00%     32.73% # attempts to use FU when none available
system.switch_cpus.iq.fu_full::SimdSha1Hash2            0      0.00%     32.73% # attempts to use FU when none available
system.switch_cpus.iq.fu_full::SimdSha256Hash            0      0.00%     32.73% # attempts to use FU when none available
system.switch_cpus.iq.fu_full::SimdSha256Hash2            0      0.00%     32.73% # attempts to use FU when none available
system.switch_cpus.iq.fu_full::SimdShaSigma2            0      0.00%     32.73% # attempts to use FU when none available
system.switch_cpus.iq.fu_full::SimdShaSigma3            0      0.00%     32.73% # attempts to use FU when none available
system.switch_cpus.iq.fu_full::SimdPredAlu            0      0.00%     32.73% # attempts to use FU when none available
system.switch_cpus.iq.fu_full::MemRead        2901062     51.53%     84.26% # attempts to use FU when none available
system.switch_cpus.iq.fu_full::MemWrite        886141     15.74%    100.00% # attempts to use FU when none available
system.switch_cpus.iq.fu_full::FloatMemRead            0      0.00%    100.00% # attempts to use FU when none available
system.switch_cpus.iq.fu_full::FloatMemWrite            0      0.00%    100.00% # attempts to use FU when none available
system.switch_cpus.iq.fu_full::IprAccess            0      0.00%    100.00% # attempts to use FU when none available
system.switch_cpus.iq.fu_full::InstPrefetch            0      0.00%    100.00% # attempts to use FU when none available
system.switch_cpus.iq.int_alu_accesses       18344609                       # Number of integer alu accesses
system.switch_cpus.iq.int_inst_queue_reads     36761418                       # Number of integer instruction queue reads
system.switch_cpus.iq.int_inst_queue_wakeup_accesses     12418749                       # Number of integer instruction queue wakeup accesses
system.switch_cpus.iq.int_inst_queue_writes     15789808                       # Number of integer instruction queue writes
system.switch_cpus.iq.iqInstsAdded           13420024                       # Number of instructions added to the IQ (excludes non-spec)
system.switch_cpus.iq.iqInstsIssued          12714458                       # Number of instructions issued
system.switch_cpus.iq.iqSquashedInstsExamined      2368341                       # Number of squashed instructions iterated over during squash; mainly for profiling
system.switch_cpus.iq.iqSquashedInstsIssued        91213                       # Number of squashed instructions issued
system.switch_cpus.iq.iqSquashedOperandsExamined      1568995                       # Number of squashed operands that are examined and possibly removed from graph
system.switch_cpus.iq.issued_per_cycle::samples      5611122                       # Number of insts issued each cycle
system.switch_cpus.iq.issued_per_cycle::mean     2.265939                       # Number of insts issued each cycle
system.switch_cpus.iq.issued_per_cycle::stdev     1.345103                       # Number of insts issued each cycle
system.switch_cpus.iq.issued_per_cycle::underflows            0      0.00%      0.00% # Number of insts issued each cycle
system.switch_cpus.iq.issued_per_cycle::0       850538     15.16%     15.16% # Number of insts issued each cycle
system.switch_cpus.iq.issued_per_cycle::1       785610     14.00%     29.16% # Number of insts issued each cycle
system.switch_cpus.iq.issued_per_cycle::2      1115479     19.88%     49.04% # Number of insts issued each cycle
system.switch_cpus.iq.issued_per_cycle::3      1811876     32.29%     81.33% # Number of insts issued each cycle
system.switch_cpus.iq.issued_per_cycle::4       975833     17.39%     98.72% # Number of insts issued each cycle
system.switch_cpus.iq.issued_per_cycle::5        71786      1.28%    100.00% # Number of insts issued each cycle
system.switch_cpus.iq.issued_per_cycle::6            0      0.00%    100.00% # Number of insts issued each cycle
system.switch_cpus.iq.issued_per_cycle::7            0      0.00%    100.00% # Number of insts issued each cycle
system.switch_cpus.iq.issued_per_cycle::8            0      0.00%    100.00% # Number of insts issued each cycle
system.switch_cpus.iq.issued_per_cycle::overflows            0      0.00%    100.00% # Number of insts issued each cycle
system.switch_cpus.iq.issued_per_cycle::min_value            0                       # Number of insts issued each cycle
system.switch_cpus.iq.issued_per_cycle::max_value            5                       # Number of insts issued each cycle
system.switch_cpus.iq.issued_per_cycle::total      5611122                       # Number of insts issued each cycle
system.switch_cpus.iq.rate                   2.264752                       # Inst issue rate
system.switch_cpus.iq.vec_alu_accesses              0                       # Number of vector alu accesses
system.switch_cpus.iq.vec_inst_queue_reads            0                       # Number of vector instruction queue reads
system.switch_cpus.iq.vec_inst_queue_wakeup_accesses            0                       # Number of vector instruction queue wakeup accesses
system.switch_cpus.iq.vec_inst_queue_writes            0                       # Number of vector instruction queue writes
system.switch_cpus.memDep0.conflictingLoads      1772838                       # Number of conflicting loads.
system.switch_cpus.memDep0.conflictingStores       250979                       # Number of conflicting stores.
system.switch_cpus.memDep0.insertedLoads      3736937                       # Number of loads inserted to the mem dependence unit.
system.switch_cpus.memDep0.insertedStores      2359375                       # Number of stores inserted to the mem dependence unit.
system.switch_cpus.misc_regfile_reads        28227245                       # number of misc regfile reads
system.switch_cpus.misc_regfile_writes              1                       # number of misc regfile writes
system.switch_cpus.numCycles                  5614063                       # number of cpu cycles simulated
system.switch_cpus.numWorkItemsCompleted            0                       # number of work items this cpu completed
system.switch_cpus.numWorkItemsStarted              0                       # number of work items this cpu started
system.switch_cpus.timesIdled                      31                       # Number of times that the entire CPU went into an idle state and unscheduled itself
system.switch_cpus.vec_regfile_writes              44                       # number of vector regfile writes
system.tol2bus.snoop_filter.hit_multi_requests            0                       # Number of requests hitting in the snoop filter with multiple (>1) holders of the requested data.
system.tol2bus.snoop_filter.hit_multi_snoops            0                       # Number of snoops hitting in the snoop filter with multiple (>1) holders of the requested data.
system.tol2bus.snoop_filter.hit_single_requests          144                       # Number of requests hitting in the snoop filter with a single holder of the requested data.
system.tol2bus.snoop_filter.hit_single_snoops           10                       # Number of snoops hitting in the snoop filter with a single holder of the requested data.
system.tol2bus.snoop_filter.tot_requests          591                       # Total number of requests made to the snoop filter.
system.tol2bus.snoop_filter.tot_snoops             10                       # Total number of snoops made to the snoop filter.
system.clk_domain.clock                          1000                       # Clock period in ticks
system.cpu.dcache.demand_hits::.cpu.data            4                       # number of demand (read+write) hits
system.cpu.dcache.demand_hits::.switch_cpus.data      3459028                       # number of demand (read+write) hits
system.cpu.dcache.demand_hits::total          3459032                       # number of demand (read+write) hits
system.cpu.dcache.overall_hits::.cpu.data            4                       # number of overall hits
system.cpu.dcache.overall_hits::.switch_cpus.data      3459028                       # number of overall hits
system.cpu.dcache.overall_hits::total         3459032                       # number of overall hits
system.cpu.dcache.demand_misses::.cpu.data            2                       # number of demand (read+write) misses
system.cpu.dcache.demand_misses::.switch_cpus.data          688                       # number of demand (read+write) misses
system.cpu.dcache.demand_misses::total            690                       # number of demand (read+write) misses
system.cpu.dcache.overall_misses::.cpu.data            2                       # number of overall misses
system.cpu.dcache.overall_misses::.switch_cpus.data          688                       # number of overall misses
system.cpu.dcache.overall_misses::total           690                       # number of overall misses
system.cpu.dcache.demand_miss_latency::.switch_cpus.data     11871600                       # number of demand (read+write) miss cycles
system.cpu.dcache.demand_miss_latency::total     11871600                       # number of demand (read+write) miss cycles
system.cpu.dcache.overall_miss_latency::.switch_cpus.data     11871600                       # number of overall miss cycles
system.cpu.dcache.overall_miss_latency::total     11871600                       # number of overall miss cycles
system.cpu.dcache.demand_accesses::.cpu.data            6                       # number of demand (read+write) accesses
system.cpu.dcache.demand_accesses::.switch_cpus.data      3459716                       # number of demand (read+write) accesses
system.cpu.dcache.demand_accesses::total      3459722                       # number of demand (read+write) accesses
system.cpu.dcache.overall_accesses::.cpu.data            6                       # number of overall (read+write) accesses
system.cpu.dcache.overall_accesses::.switch_cpus.data      3459716                       # number of overall (read+write) accesses
system.cpu.dcache.overall_accesses::total      3459722                       # number of overall (read+write) accesses
system.cpu.dcache.demand_miss_rate::.cpu.data     0.333333                       # miss rate for demand accesses
system.cpu.dcache.demand_miss_rate::.switch_cpus.data     0.000199                       # miss rate for demand accesses
system.cpu.dcache.demand_miss_rate::total     0.000199                       # miss rate for demand accesses
system.cpu.dcache.overall_miss_rate::.cpu.data     0.333333                       # miss rate for overall accesses
system.cpu.dcache.overall_miss_rate::.switch_cpus.data     0.000199                       # miss rate for overall accesses
system.cpu.dcache.overall_miss_rate::total     0.000199                       # miss rate for overall accesses
system.cpu.dcache.demand_avg_miss_latency::.switch_cpus.data 17255.232558                       # average overall miss latency
system.cpu.dcache.demand_avg_miss_latency::total 17205.217391                       # average overall miss latency
system.cpu.dcache.overall_avg_miss_latency::.switch_cpus.data 17255.232558                       # average overall miss latency
system.cpu.dcache.overall_avg_miss_latency::total 17205.217391                       # average overall miss latency
system.cpu.dcache.blocked_cycles::no_mshrs            0                       # number of cycles access was blocked
system.cpu.dcache.blocked_cycles::no_targets            0                       # number of cycles access was blocked
system.cpu.dcache.blocked::no_mshrs                 0                       # number of cycles access was blocked
system.cpu.dcache.blocked::no_targets               0                       # number of cycles access was blocked
system.cpu.dcache.avg_blocked_cycles::no_mshrs          nan                       # average number of cycles each access was blocked
system.cpu.dcache.avg_blocked_cycles::no_targets          nan                       # average number of cycles each access was blocked
system.cpu.dcache.writebacks::.writebacks          144                       # number of writebacks
system.cpu.dcache.writebacks::total               144                       # number of writebacks
system.cpu.dcache.demand_mshr_hits::.switch_cpus.data          290                       # number of demand (read+write) MSHR hits
system.cpu.dcache.demand_mshr_hits::total          290                       # number of demand (read+write) MSHR hits
system.cpu.dcache.overall_mshr_hits::.switch_cpus.data          290                       # number of overall MSHR hits
system.cpu.dcache.overall_mshr_hits::total          290                       # number of overall MSHR hits
system.cpu.dcache.demand_mshr_misses::.switch_cpus.data          398                       # number of demand (read+write) MSHR misses
system.cpu.dcache.demand_mshr_misses::total          398                       # number of demand (read+write) MSHR misses
system.cpu.dcache.overall_mshr_misses::.switch_cpus.data          398                       # number of overall MSHR misses
system.cpu.dcache.overall_mshr_misses::total          398                       # number of overall MSHR misses
system.cpu.dcache.demand_mshr_miss_latency::.switch_cpus.data      5318000                       # number of demand (read+write) MSHR miss cycles
system.cpu.dcache.demand_mshr_miss_latency::total      5318000                       # number of demand (read+write) MSHR miss cycles
system.cpu.dcache.overall_mshr_miss_latency::.switch_cpus.data      5318000                       # number of overall MSHR miss cycles
system.cpu.dcache.overall_mshr_miss_latency::total      5318000                       # number of overall MSHR miss cycles
system.cpu.dcache.demand_mshr_miss_rate::.switch_cpus.data     0.000115                       # mshr miss rate for demand accesses
system.cpu.dcache.demand_mshr_miss_rate::total     0.000115                       # mshr miss rate for demand accesses
system.cpu.dcache.overall_mshr_miss_rate::.switch_cpus.data     0.000115                       # mshr miss rate for overall accesses
system.cpu.dcache.overall_mshr_miss_rate::total     0.000115                       # mshr miss rate for overall accesses
system.cpu.dcache.demand_avg_mshr_miss_latency::.switch_cpus.data 13361.809045                       # average overall mshr miss latency
system.cpu.dcache.demand_avg_mshr_miss_latency::total 13361.809045                       # average overall mshr miss latency
system.cpu.dcache.overall_avg_mshr_miss_latency::.switch_cpus.data 13361.809045                       # average overall mshr miss latency
system.cpu.dcache.overall_avg_mshr_miss_latency::total 13361.809045                       # average overall mshr miss latency
system.cpu.dcache.replacements                    144                       # number of replacements
system.cpu.dcache.ReadReq_hits::.cpu.data            2                       # number of ReadReq hits
system.cpu.dcache.ReadReq_hits::.switch_cpus.data      1638022                       # number of ReadReq hits
system.cpu.dcache.ReadReq_hits::total         1638024                       # number of ReadReq hits
system.cpu.dcache.ReadReq_misses::.cpu.data            2                       # number of ReadReq misses
system.cpu.dcache.ReadReq_misses::.switch_cpus.data          203                       # number of ReadReq misses
system.cpu.dcache.ReadReq_misses::total           205                       # number of ReadReq misses
system.cpu.dcache.ReadReq_miss_latency::.switch_cpus.data      6037200                       # number of ReadReq miss cycles
system.cpu.dcache.ReadReq_miss_latency::total      6037200                       # number of ReadReq miss cycles
system.cpu.dcache.ReadReq_accesses::.cpu.data            4                       # number of ReadReq accesses(hits+misses)
system.cpu.dcache.ReadReq_accesses::.switch_cpus.data      1638225                       # number of ReadReq accesses(hits+misses)
system.cpu.dcache.ReadReq_accesses::total      1638229                       # number of ReadReq accesses(hits+misses)
system.cpu.dcache.ReadReq_miss_rate::.cpu.data     0.500000                       # miss rate for ReadReq accesses
system.cpu.dcache.ReadReq_miss_rate::.switch_cpus.data     0.000124                       # miss rate for ReadReq accesses
system.cpu.dcache.ReadReq_miss_rate::total     0.000125                       # miss rate for ReadReq accesses
system.cpu.dcache.ReadReq_avg_miss_latency::.switch_cpus.data 29739.901478                       # average ReadReq miss latency
system.cpu.dcache.ReadReq_avg_miss_latency::total 29449.756098                       # average ReadReq miss latency
system.cpu.dcache.ReadReq_mshr_hits::.switch_cpus.data           48                       # number of ReadReq MSHR hits
system.cpu.dcache.ReadReq_mshr_hits::total           48                       # number of ReadReq MSHR hits
system.cpu.dcache.ReadReq_mshr_misses::.switch_cpus.data          155                       # number of ReadReq MSHR misses
system.cpu.dcache.ReadReq_mshr_misses::total          155                       # number of ReadReq MSHR misses
system.cpu.dcache.ReadReq_mshr_miss_latency::.switch_cpus.data      2596000                       # number of ReadReq MSHR miss cycles
system.cpu.dcache.ReadReq_mshr_miss_latency::total      2596000                       # number of ReadReq MSHR miss cycles
system.cpu.dcache.ReadReq_mshr_miss_rate::.switch_cpus.data     0.000095                       # mshr miss rate for ReadReq accesses
system.cpu.dcache.ReadReq_mshr_miss_rate::total     0.000095                       # mshr miss rate for ReadReq accesses
system.cpu.dcache.ReadReq_avg_mshr_miss_latency::.switch_cpus.data 16748.387097                       # average ReadReq mshr miss latency
system.cpu.dcache.ReadReq_avg_mshr_miss_latency::total 16748.387097                       # average ReadReq mshr miss latency
system.cpu.dcache.WriteReq_hits::.cpu.data            2                       # number of WriteReq hits
system.cpu.dcache.WriteReq_hits::.switch_cpus.data      1821006                       # number of WriteReq hits
system.cpu.dcache.WriteReq_hits::total        1821008                       # number of WriteReq hits
system.cpu.dcache.WriteReq_misses::.switch_cpus.data          485                       # number of WriteReq misses
system.cpu.dcache.WriteReq_misses::total          485                       # number of WriteReq misses
system.cpu.dcache.WriteReq_miss_latency::.switch_cpus.data      5834400                       # number of WriteReq miss cycles
system.cpu.dcache.WriteReq_miss_latency::total      5834400                       # number of WriteReq miss cycles
system.cpu.dcache.WriteReq_accesses::.cpu.data            2                       # number of WriteReq accesses(hits+misses)
system.cpu.dcache.WriteReq_accesses::.switch_cpus.data      1821491                       # number of WriteReq accesses(hits+misses)
system.cpu.dcache.WriteReq_accesses::total      1821493                       # number of WriteReq accesses(hits+misses)
system.cpu.dcache.WriteReq_miss_rate::.switch_cpus.data     0.000266                       # miss rate for WriteReq accesses
system.cpu.dcache.WriteReq_miss_rate::total     0.000266                       # miss rate for WriteReq accesses
system.cpu.dcache.WriteReq_avg_miss_latency::.switch_cpus.data 12029.690722                       # average WriteReq miss latency
system.cpu.dcache.WriteReq_avg_miss_latency::total 12029.690722                       # average WriteReq miss latency
system.cpu.dcache.WriteReq_mshr_hits::.switch_cpus.data          242                       # number of WriteReq MSHR hits
system.cpu.dcache.WriteReq_mshr_hits::total          242                       # number of WriteReq MSHR hits
system.cpu.dcache.WriteReq_mshr_misses::.switch_cpus.data          243                       # number of WriteReq MSHR misses
system.cpu.dcache.WriteReq_mshr_misses::total          243                       # number of WriteReq MSHR misses
system.cpu.dcache.WriteReq_mshr_miss_latency::.switch_cpus.data      2722000                       # number of WriteReq MSHR miss cycles
system.cpu.dcache.WriteReq_mshr_miss_latency::total      2722000                       # number of WriteReq MSHR miss cycles
system.cpu.dcache.WriteReq_mshr_miss_rate::.switch_cpus.data     0.000133                       # mshr miss rate for WriteReq accesses
system.cpu.dcache.WriteReq_mshr_miss_rate::total     0.000133                       # mshr miss rate for WriteReq accesses
system.cpu.dcache.WriteReq_avg_mshr_miss_latency::.switch_cpus.data 11201.646091                       # average WriteReq mshr miss latency
system.cpu.dcache.WriteReq_avg_mshr_miss_latency::total 11201.646091                       # average WriteReq mshr miss latency
system.cpu.dcache.power_state.pwrStateResidencyTicks::UNDEFINED 130401049600                       # Cumulative time (in ticks) in various power states
system.cpu.dcache.tags.tagsinuse           223.007300                       # Cycle average of tags in use
system.cpu.dcache.tags.total_refs               37272                       # Total number of references to valid blocks.
system.cpu.dcache.tags.sampled_refs               144                       # Sample count of references to valid blocks.
system.cpu.dcache.tags.avg_refs            258.833333                       # Average number of references to valid blocks.
system.cpu.dcache.tags.warmup_cycle      128155413600                       # Cycle when the warmup percentage was hit.
system.cpu.dcache.tags.occ_blocks::.cpu.data     1.999999                       # Average occupied blocks per requestor
system.cpu.dcache.tags.occ_blocks::.switch_cpus.data   221.007301                       # Average occupied blocks per requestor
system.cpu.dcache.tags.occ_percent::.cpu.data     0.007812                       # Average percentage of cache occupancy
system.cpu.dcache.tags.occ_percent::.switch_cpus.data     0.863310                       # Average percentage of cache occupancy
system.cpu.dcache.tags.occ_percent::total     0.871122                       # Average percentage of cache occupancy
system.cpu.dcache.tags.occ_task_id_blocks::1024          256                       # Occupied blocks per task id
system.cpu.dcache.tags.age_task_id_blocks_1024::0            1                       # Occupied blocks per task id
system.cpu.dcache.tags.age_task_id_blocks_1024::1           10                       # Occupied blocks per task id
system.cpu.dcache.tags.age_task_id_blocks_1024::2           88                       # Occupied blocks per task id
system.cpu.dcache.tags.age_task_id_blocks_1024::3          157                       # Occupied blocks per task id
system.cpu.dcache.tags.occ_task_id_percent::1024            1                       # Percentage of cache occupancy per task id
system.cpu.dcache.tags.tag_accesses          27678176                       # Number of tag accesses
system.cpu.dcache.tags.data_accesses         27678176                       # Number of data accesses
system.cpu.dcache.tags.power_state.pwrStateResidencyTicks::UNDEFINED 130401049600                       # Cumulative time (in ticks) in various power states
system.cpu.dtb.instHits                             0                       # ITB inst hits
system.cpu.dtb.instMisses                           0                       # ITB inst misses
system.cpu.dtb.readHits                             0                       # DTB read hits
system.cpu.dtb.readMisses                           0                       # DTB read misses
system.cpu.dtb.writeHits                            0                       # DTB write hits
system.cpu.dtb.writeMisses                          0                       # DTB write misses
system.cpu.dtb.inserts                              0                       # Number of times an entry is inserted into the TLB
system.cpu.dtb.flushTlb                             2                       # Number of times complete TLB was flushed
system.cpu.dtb.flushTlbMva                          0                       # Number of times TLB was flushed by MVA
system.cpu.dtb.flushTlbMvaAsid                      0                       # Number of times TLB was flushed by MVA & ASID
system.cpu.dtb.flushTlbAsid                         0                       # Number of times TLB was flushed by ASID
system.cpu.dtb.flushedEntries                       0                       # Number of entries that have been flushed from TLB
system.cpu.dtb.alignFaults                          0                       # Number of TLB faults due to alignment restrictions
system.cpu.dtb.prefetchFaults                       0                       # Number of TLB faults due to prefetch
system.cpu.dtb.domainFaults                         0                       # Number of TLB faults due to domain restrictions
system.cpu.dtb.permsFaults                          0                       # Number of TLB faults due to permissions restrictions
system.cpu.dtb.readAccesses                         0                       # DTB read accesses
system.cpu.dtb.writeAccesses                        0                       # DTB write accesses
system.cpu.dtb.instAccesses                         0                       # ITB inst accesses
system.cpu.dtb.hits                                 0                       # Total TLB (inst and data) hits
system.cpu.dtb.misses                               0                       # Total TLB (inst and data) misses
system.cpu.dtb.accesses                             0                       # Total TLB (inst and data) accesses
system.cpu.dtb.stage2_mmu.stage2_tlb.instHits            0                       # ITB inst hits
system.cpu.dtb.stage2_mmu.stage2_tlb.instMisses            0                       # ITB inst misses
system.cpu.dtb.stage2_mmu.stage2_tlb.readHits            0                       # DTB read hits
system.cpu.dtb.stage2_mmu.stage2_tlb.readMisses            0                       # DTB read misses
system.cpu.dtb.stage2_mmu.stage2_tlb.writeHits            0                       # DTB write hits
system.cpu.dtb.stage2_mmu.stage2_tlb.writeMisses            0                       # DTB write misses
system.cpu.dtb.stage2_mmu.stage2_tlb.inserts            0                       # Number of times an entry is inserted into the TLB
system.cpu.dtb.stage2_mmu.stage2_tlb.flushTlb            0                       # Number of times complete TLB was flushed
system.cpu.dtb.stage2_mmu.stage2_tlb.flushTlbMva            0                       # Number of times TLB was flushed by MVA
system.cpu.dtb.stage2_mmu.stage2_tlb.flushTlbMvaAsid            0                       # Number of times TLB was flushed by MVA & ASID
system.cpu.dtb.stage2_mmu.stage2_tlb.flushTlbAsid            0                       # Number of times TLB was flushed by ASID
system.cpu.dtb.stage2_mmu.stage2_tlb.flushedEntries            0                       # Number of entries that have been flushed from TLB
system.cpu.dtb.stage2_mmu.stage2_tlb.alignFaults            0                       # Number of TLB faults due to alignment restrictions
system.cpu.dtb.stage2_mmu.stage2_tlb.prefetchFaults            0                       # Number of TLB faults due to prefetch
system.cpu.dtb.stage2_mmu.stage2_tlb.domainFaults            0                       # Number of TLB faults due to domain restrictions
system.cpu.dtb.stage2_mmu.stage2_tlb.permsFaults            0                       # Number of TLB faults due to permissions restrictions
system.cpu.dtb.stage2_mmu.stage2_tlb.readAccesses            0                       # DTB read accesses
system.cpu.dtb.stage2_mmu.stage2_tlb.writeAccesses            0                       # DTB write accesses
system.cpu.dtb.stage2_mmu.stage2_tlb.instAccesses            0                       # ITB inst accesses
system.cpu.dtb.stage2_mmu.stage2_tlb.hits            0                       # Total TLB (inst and data) hits
system.cpu.dtb.stage2_mmu.stage2_tlb.misses            0                       # Total TLB (inst and data) misses
system.cpu.dtb.stage2_mmu.stage2_tlb.accesses            0                       # Total TLB (inst and data) accesses
system.cpu.dtb.stage2_mmu.stage2_tlb.walker.walks            0                       # Table walker walks requested
system.cpu.dtb.stage2_mmu.stage2_tlb.walker.requestOrigin_Requested::Data            0                       # Table walker requests started/completed, data/inst
system.cpu.dtb.stage2_mmu.stage2_tlb.walker.requestOrigin_Requested::Inst            0                       # Table walker requests started/completed, data/inst
system.cpu.dtb.stage2_mmu.stage2_tlb.walker.requestOrigin_Requested::total            0                       # Table walker requests started/completed, data/inst
system.cpu.dtb.stage2_mmu.stage2_tlb.walker.requestOrigin_Completed::Data            0                       # Table walker requests started/completed, data/inst
system.cpu.dtb.stage2_mmu.stage2_tlb.walker.requestOrigin_Completed::Inst            0                       # Table walker requests started/completed, data/inst
system.cpu.dtb.stage2_mmu.stage2_tlb.walker.requestOrigin_Completed::total            0                       # Table walker requests started/completed, data/inst
system.cpu.dtb.stage2_mmu.stage2_tlb.walker.requestOrigin::total            0                       # Table walker requests started/completed, data/inst
system.cpu.dtb.stage2_mmu.stage2_tlb.walker.power_state.pwrStateResidencyTicks::UNDEFINED 130401049600                       # Cumulative time (in ticks) in various power states
system.cpu.dtb.walker.walks                         0                       # Table walker walks requested
system.cpu.dtb.walker.requestOrigin_Requested::Data            0                       # Table walker requests started/completed, data/inst
system.cpu.dtb.walker.requestOrigin_Requested::Inst            0                       # Table walker requests started/completed, data/inst
system.cpu.dtb.walker.requestOrigin_Requested::total            0                       # Table walker requests started/completed, data/inst
system.cpu.dtb.walker.requestOrigin_Completed::Data            0                       # Table walker requests started/completed, data/inst
system.cpu.dtb.walker.requestOrigin_Completed::Inst            0                       # Table walker requests started/completed, data/inst
system.cpu.dtb.walker.requestOrigin_Completed::total            0                       # Table walker requests started/completed, data/inst
system.cpu.dtb.walker.requestOrigin::total            0                       # Table walker requests started/completed, data/inst
system.cpu.dtb.walker.power_state.pwrStateResidencyTicks::UNDEFINED 130401049600                       # Cumulative time (in ticks) in various power states
system.cpu.dtb_walker_cache.blocked_cycles::no_mshrs            0                       # number of cycles access was blocked
system.cpu.dtb_walker_cache.blocked_cycles::no_targets            0                       # number of cycles access was blocked
system.cpu.dtb_walker_cache.blocked::no_mshrs            0                       # number of cycles access was blocked
system.cpu.dtb_walker_cache.blocked::no_targets            0                       # number of cycles access was blocked
system.cpu.dtb_walker_cache.avg_blocked_cycles::no_mshrs          nan                       # average number of cycles each access was blocked
system.cpu.dtb_walker_cache.avg_blocked_cycles::no_targets          nan                       # average number of cycles each access was blocked
system.cpu.dtb_walker_cache.replacements            0                       # number of replacements
system.cpu.dtb_walker_cache.power_state.pwrStateResidencyTicks::UNDEFINED 130401049600                       # Cumulative time (in ticks) in various power states
system.cpu.dtb_walker_cache.tags.tagsinuse            0                       # Cycle average of tags in use
system.cpu.dtb_walker_cache.tags.total_refs            0                       # Total number of references to valid blocks.
system.cpu.dtb_walker_cache.tags.sampled_refs            0                       # Sample count of references to valid blocks.
system.cpu.dtb_walker_cache.tags.avg_refs          nan                       # Average number of references to valid blocks.
system.cpu.dtb_walker_cache.tags.warmup_cycle            0                       # Cycle when the warmup percentage was hit.
system.cpu.dtb_walker_cache.tags.tag_accesses            0                       # Number of tag accesses
system.cpu.dtb_walker_cache.tags.data_accesses            0                       # Number of data accesses
system.cpu.dtb_walker_cache.tags.power_state.pwrStateResidencyTicks::UNDEFINED 130401049600                       # Cumulative time (in ticks) in various power states
system.cpu.icache.demand_hits::.cpu.inst           20                       # number of demand (read+write) hits
system.cpu.icache.demand_hits::.switch_cpus.inst      1929780                       # number of demand (read+write) hits
system.cpu.icache.demand_hits::total          1929800                       # number of demand (read+write) hits
system.cpu.icache.overall_hits::.cpu.inst           20                       # number of overall hits
system.cpu.icache.overall_hits::.switch_cpus.inst      1929780                       # number of overall hits
system.cpu.icache.overall_hits::total         1929800                       # number of overall hits
system.cpu.icache.demand_misses::.cpu.inst            4                       # number of demand (read+write) misses
system.cpu.icache.demand_misses::.switch_cpus.inst           71                       # number of demand (read+write) misses
system.cpu.icache.demand_misses::total             75                       # number of demand (read+write) misses
system.cpu.icache.overall_misses::.cpu.inst            4                       # number of overall misses
system.cpu.icache.overall_misses::.switch_cpus.inst           71                       # number of overall misses
system.cpu.icache.overall_misses::total            75                       # number of overall misses
system.cpu.icache.demand_miss_latency::.switch_cpus.inst      4260800                       # number of demand (read+write) miss cycles
system.cpu.icache.demand_miss_latency::total      4260800                       # number of demand (read+write) miss cycles
system.cpu.icache.overall_miss_latency::.switch_cpus.inst      4260800                       # number of overall miss cycles
system.cpu.icache.overall_miss_latency::total      4260800                       # number of overall miss cycles
system.cpu.icache.demand_accesses::.cpu.inst           24                       # number of demand (read+write) accesses
system.cpu.icache.demand_accesses::.switch_cpus.inst      1929851                       # number of demand (read+write) accesses
system.cpu.icache.demand_accesses::total      1929875                       # number of demand (read+write) accesses
system.cpu.icache.overall_accesses::.cpu.inst           24                       # number of overall (read+write) accesses
system.cpu.icache.overall_accesses::.switch_cpus.inst      1929851                       # number of overall (read+write) accesses
system.cpu.icache.overall_accesses::total      1929875                       # number of overall (read+write) accesses
system.cpu.icache.demand_miss_rate::.cpu.inst     0.166667                       # miss rate for demand accesses
system.cpu.icache.demand_miss_rate::.switch_cpus.inst     0.000037                       # miss rate for demand accesses
system.cpu.icache.demand_miss_rate::total     0.000039                       # miss rate for demand accesses
system.cpu.icache.overall_miss_rate::.cpu.inst     0.166667                       # miss rate for overall accesses
system.cpu.icache.overall_miss_rate::.switch_cpus.inst     0.000037                       # miss rate for overall accesses
system.cpu.icache.overall_miss_rate::total     0.000039                       # miss rate for overall accesses
system.cpu.icache.demand_avg_miss_latency::.switch_cpus.inst 60011.267606                       # average overall miss latency
system.cpu.icache.demand_avg_miss_latency::total 56810.666667                       # average overall miss latency
system.cpu.icache.overall_avg_miss_latency::.switch_cpus.inst 60011.267606                       # average overall miss latency
system.cpu.icache.overall_avg_miss_latency::total 56810.666667                       # average overall miss latency
system.cpu.icache.blocked_cycles::no_mshrs         1704                       # number of cycles access was blocked
system.cpu.icache.blocked_cycles::no_targets            0                       # number of cycles access was blocked
system.cpu.icache.blocked::no_mshrs                13                       # number of cycles access was blocked
system.cpu.icache.blocked::no_targets               0                       # number of cycles access was blocked
system.cpu.icache.avg_blocked_cycles::no_mshrs   131.076923                       # average number of cycles each access was blocked
system.cpu.icache.avg_blocked_cycles::no_targets          nan                       # average number of cycles each access was blocked
system.cpu.icache.demand_mshr_hits::.switch_cpus.inst           28                       # number of demand (read+write) MSHR hits
system.cpu.icache.demand_mshr_hits::total           28                       # number of demand (read+write) MSHR hits
system.cpu.icache.overall_mshr_hits::.switch_cpus.inst           28                       # number of overall MSHR hits
system.cpu.icache.overall_mshr_hits::total           28                       # number of overall MSHR hits
system.cpu.icache.demand_mshr_misses::.switch_cpus.inst           43                       # number of demand (read+write) MSHR misses
system.cpu.icache.demand_mshr_misses::total           43                       # number of demand (read+write) MSHR misses
system.cpu.icache.overall_mshr_misses::.switch_cpus.inst           43                       # number of overall MSHR misses
system.cpu.icache.overall_mshr_misses::total           43                       # number of overall MSHR misses
system.cpu.icache.demand_mshr_miss_latency::.switch_cpus.inst      2879600                       # number of demand (read+write) MSHR miss cycles
system.cpu.icache.demand_mshr_miss_latency::total      2879600                       # number of demand (read+write) MSHR miss cycles
system.cpu.icache.overall_mshr_miss_latency::.switch_cpus.inst      2879600                       # number of overall MSHR miss cycles
system.cpu.icache.overall_mshr_miss_latency::total      2879600                       # number of overall MSHR miss cycles
system.cpu.icache.demand_mshr_miss_rate::.switch_cpus.inst     0.000022                       # mshr miss rate for demand accesses
system.cpu.icache.demand_mshr_miss_rate::total     0.000022                       # mshr miss rate for demand accesses
system.cpu.icache.overall_mshr_miss_rate::.switch_cpus.inst     0.000022                       # mshr miss rate for overall accesses
system.cpu.icache.overall_mshr_miss_rate::total     0.000022                       # mshr miss rate for overall accesses
system.cpu.icache.demand_avg_mshr_miss_latency::.switch_cpus.inst 66967.441860                       # average overall mshr miss latency
system.cpu.icache.demand_avg_mshr_miss_latency::total 66967.441860                       # average overall mshr miss latency
system.cpu.icache.overall_avg_mshr_miss_latency::.switch_cpus.inst 66967.441860                       # average overall mshr miss latency
system.cpu.icache.overall_avg_mshr_miss_latency::total 66967.441860                       # average overall mshr miss latency
system.cpu.icache.replacements                      0                       # number of replacements
system.cpu.icache.ReadReq_hits::.cpu.inst           20                       # number of ReadReq hits
system.cpu.icache.ReadReq_hits::.switch_cpus.inst      1929780                       # number of ReadReq hits
system.cpu.icache.ReadReq_hits::total         1929800                       # number of ReadReq hits
system.cpu.icache.ReadReq_misses::.cpu.inst            4                       # number of ReadReq misses
system.cpu.icache.ReadReq_misses::.switch_cpus.inst           71                       # number of ReadReq misses
system.cpu.icache.ReadReq_misses::total            75                       # number of ReadReq misses
system.cpu.icache.ReadReq_miss_latency::.switch_cpus.inst      4260800                       # number of ReadReq miss cycles
system.cpu.icache.ReadReq_miss_latency::total      4260800                       # number of ReadReq miss cycles
system.cpu.icache.ReadReq_accesses::.cpu.inst           24                       # number of ReadReq accesses(hits+misses)
system.cpu.icache.ReadReq_accesses::.switch_cpus.inst      1929851                       # number of ReadReq accesses(hits+misses)
system.cpu.icache.ReadReq_accesses::total      1929875                       # number of ReadReq accesses(hits+misses)
system.cpu.icache.ReadReq_miss_rate::.cpu.inst     0.166667                       # miss rate for ReadReq accesses
system.cpu.icache.ReadReq_miss_rate::.switch_cpus.inst     0.000037                       # miss rate for ReadReq accesses
system.cpu.icache.ReadReq_miss_rate::total     0.000039                       # miss rate for ReadReq accesses
system.cpu.icache.ReadReq_avg_miss_latency::.switch_cpus.inst 60011.267606                       # average ReadReq miss latency
system.cpu.icache.ReadReq_avg_miss_latency::total 56810.666667                       # average ReadReq miss latency
system.cpu.icache.ReadReq_mshr_hits::.switch_cpus.inst           28                       # number of ReadReq MSHR hits
system.cpu.icache.ReadReq_mshr_hits::total           28                       # number of ReadReq MSHR hits
system.cpu.icache.ReadReq_mshr_misses::.switch_cpus.inst           43                       # number of ReadReq MSHR misses
system.cpu.icache.ReadReq_mshr_misses::total           43                       # number of ReadReq MSHR misses
system.cpu.icache.ReadReq_mshr_miss_latency::.switch_cpus.inst      2879600                       # number of ReadReq MSHR miss cycles
system.cpu.icache.ReadReq_mshr_miss_latency::total      2879600                       # number of ReadReq MSHR miss cycles
system.cpu.icache.ReadReq_mshr_miss_rate::.switch_cpus.inst     0.000022                       # mshr miss rate for ReadReq accesses
system.cpu.icache.ReadReq_mshr_miss_rate::total     0.000022                       # mshr miss rate for ReadReq accesses
system.cpu.icache.ReadReq_avg_mshr_miss_latency::.switch_cpus.inst 66967.441860                       # average ReadReq mshr miss latency
system.cpu.icache.ReadReq_avg_mshr_miss_latency::total 66967.441860                       # average ReadReq mshr miss latency
system.cpu.icache.power_state.pwrStateResidencyTicks::UNDEFINED 130401049600                       # Cumulative time (in ticks) in various power states
system.cpu.icache.tags.tagsinuse            46.969322                       # Cycle average of tags in use
system.cpu.icache.tags.total_refs                   0                       # Total number of references to valid blocks.
system.cpu.icache.tags.sampled_refs                 0                       # Sample count of references to valid blocks.
system.cpu.icache.tags.avg_refs                   nan                       # Average number of references to valid blocks.
system.cpu.icache.tags.warmup_cycle      128155413600                       # Cycle when the warmup percentage was hit.
system.cpu.icache.tags.occ_blocks::.cpu.inst     3.999989                       # Average occupied blocks per requestor
system.cpu.icache.tags.occ_blocks::.switch_cpus.inst    42.969333                       # Average occupied blocks per requestor
system.cpu.icache.tags.occ_percent::.cpu.inst     0.007812                       # Average percentage of cache occupancy
system.cpu.icache.tags.occ_percent::.switch_cpus.inst     0.083924                       # Average percentage of cache occupancy
system.cpu.icache.tags.occ_percent::total     0.091737                       # Average percentage of cache occupancy
system.cpu.icache.tags.occ_task_id_blocks::1024           47                       # Occupied blocks per task id
system.cpu.icache.tags.age_task_id_blocks_1024::3           47                       # Occupied blocks per task id
system.cpu.icache.tags.occ_task_id_percent::1024     0.091797                       # Percentage of cache occupancy per task id
system.cpu.icache.tags.tag_accesses          15439047                       # Number of tag accesses
system.cpu.icache.tags.data_accesses         15439047                       # Number of data accesses
system.cpu.icache.tags.power_state.pwrStateResidencyTicks::UNDEFINED 130401049600                       # Cumulative time (in ticks) in various power states
system.cpu.itb.instHits                             0                       # ITB inst hits
system.cpu.itb.instMisses                           0                       # ITB inst misses
system.cpu.itb.readHits                             0                       # DTB read hits
system.cpu.itb.readMisses                           0                       # DTB read misses
system.cpu.itb.writeHits                            0                       # DTB write hits
system.cpu.itb.writeMisses                          0                       # DTB write misses
system.cpu.itb.inserts                              0                       # Number of times an entry is inserted into the TLB
system.cpu.itb.flushTlb                             2                       # Number of times complete TLB was flushed
system.cpu.itb.flushTlbMva                          0                       # Number of times TLB was flushed by MVA
system.cpu.itb.flushTlbMvaAsid                      0                       # Number of times TLB was flushed by MVA & ASID
system.cpu.itb.flushTlbAsid                         0                       # Number of times TLB was flushed by ASID
system.cpu.itb.flushedEntries                       0                       # Number of entries that have been flushed from TLB
system.cpu.itb.alignFaults                          0                       # Number of TLB faults due to alignment restrictions
system.cpu.itb.prefetchFaults                       0                       # Number of TLB faults due to prefetch
system.cpu.itb.domainFaults                         0                       # Number of TLB faults due to domain restrictions
system.cpu.itb.permsFaults                          0                       # Number of TLB faults due to permissions restrictions
system.cpu.itb.readAccesses                         0                       # DTB read accesses
system.cpu.itb.writeAccesses                        0                       # DTB write accesses
system.cpu.itb.instAccesses                         0                       # ITB inst accesses
system.cpu.itb.hits                                 0                       # Total TLB (inst and data) hits
system.cpu.itb.misses                               0                       # Total TLB (inst and data) misses
system.cpu.itb.accesses                             0                       # Total TLB (inst and data) accesses
system.cpu.itb.stage2_mmu.stage2_tlb.instHits            0                       # ITB inst hits
system.cpu.itb.stage2_mmu.stage2_tlb.instMisses            0                       # ITB inst misses
system.cpu.itb.stage2_mmu.stage2_tlb.readHits            0                       # DTB read hits
system.cpu.itb.stage2_mmu.stage2_tlb.readMisses            0                       # DTB read misses
system.cpu.itb.stage2_mmu.stage2_tlb.writeHits            0                       # DTB write hits
system.cpu.itb.stage2_mmu.stage2_tlb.writeMisses            0                       # DTB write misses
system.cpu.itb.stage2_mmu.stage2_tlb.inserts            0                       # Number of times an entry is inserted into the TLB
system.cpu.itb.stage2_mmu.stage2_tlb.flushTlb            0                       # Number of times complete TLB was flushed
system.cpu.itb.stage2_mmu.stage2_tlb.flushTlbMva            0                       # Number of times TLB was flushed by MVA
system.cpu.itb.stage2_mmu.stage2_tlb.flushTlbMvaAsid            0                       # Number of times TLB was flushed by MVA & ASID
system.cpu.itb.stage2_mmu.stage2_tlb.flushTlbAsid            0                       # Number of times TLB was flushed by ASID
system.cpu.itb.stage2_mmu.stage2_tlb.flushedEntries            0                       # Number of entries that have been flushed from TLB
system.cpu.itb.stage2_mmu.stage2_tlb.alignFaults            0                       # Number of TLB faults due to alignment restrictions
system.cpu.itb.stage2_mmu.stage2_tlb.prefetchFaults            0                       # Number of TLB faults due to prefetch
system.cpu.itb.stage2_mmu.stage2_tlb.domainFaults            0                       # Number of TLB faults due to domain restrictions
system.cpu.itb.stage2_mmu.stage2_tlb.permsFaults            0                       # Number of TLB faults due to permissions restrictions
system.cpu.itb.stage2_mmu.stage2_tlb.readAccesses            0                       # DTB read accesses
system.cpu.itb.stage2_mmu.stage2_tlb.writeAccesses            0                       # DTB write accesses
system.cpu.itb.stage2_mmu.stage2_tlb.instAccesses            0                       # ITB inst accesses
system.cpu.itb.stage2_mmu.stage2_tlb.hits            0                       # Total TLB (inst and data) hits
system.cpu.itb.stage2_mmu.stage2_tlb.misses            0                       # Total TLB (inst and data) misses
system.cpu.itb.stage2_mmu.stage2_tlb.accesses            0                       # Total TLB (inst and data) accesses
system.cpu.itb.stage2_mmu.stage2_tlb.walker.walks            0                       # Table walker walks requested
system.cpu.itb.stage2_mmu.stage2_tlb.walker.requestOrigin_Requested::Data            0                       # Table walker requests started/completed, data/inst
system.cpu.itb.stage2_mmu.stage2_tlb.walker.requestOrigin_Requested::Inst            0                       # Table walker requests started/completed, data/inst
system.cpu.itb.stage2_mmu.stage2_tlb.walker.requestOrigin_Requested::total            0                       # Table walker requests started/completed, data/inst
system.cpu.itb.stage2_mmu.stage2_tlb.walker.requestOrigin_Completed::Data            0                       # Table walker requests started/completed, data/inst
system.cpu.itb.stage2_mmu.stage2_tlb.walker.requestOrigin_Completed::Inst            0                       # Table walker requests started/completed, data/inst
system.cpu.itb.stage2_mmu.stage2_tlb.walker.requestOrigin_Completed::total            0                       # Table walker requests started/completed, data/inst
system.cpu.itb.stage2_mmu.stage2_tlb.walker.requestOrigin::total            0                       # Table walker requests started/completed, data/inst
system.cpu.itb.stage2_mmu.stage2_tlb.walker.power_state.pwrStateResidencyTicks::UNDEFINED 130401049600                       # Cumulative time (in ticks) in various power states
system.cpu.itb.walker.walks                         0                       # Table walker walks requested
system.cpu.itb.walker.requestOrigin_Requested::Data            0                       # Table walker requests started/completed, data/inst
system.cpu.itb.walker.requestOrigin_Requested::Inst            0                       # Table walker requests started/completed, data/inst
system.cpu.itb.walker.requestOrigin_Requested::total            0                       # Table walker requests started/completed, data/inst
system.cpu.itb.walker.requestOrigin_Completed::Data            0                       # Table walker requests started/completed, data/inst
system.cpu.itb.walker.requestOrigin_Completed::Inst            0                       # Table walker requests started/completed, data/inst
system.cpu.itb.walker.requestOrigin_Completed::total            0                       # Table walker requests started/completed, data/inst
system.cpu.itb.walker.requestOrigin::total            0                       # Table walker requests started/completed, data/inst
system.cpu.itb.walker.power_state.pwrStateResidencyTicks::UNDEFINED 130401049600                       # Cumulative time (in ticks) in various power states
[...]
system.switch_cpus.dtb.walker.requestOrigin_Requested::Inst            0                       # Table walker requests started/completed, data/inst
system.switch_cpus.dtb.walker.requestOrigin_Requested::total            0                       # Table walker requests started/completed, data/inst
system.switch_cpus.dtb.walker.requestOrigin_Completed::Data            0                       # Table walker requests started/completed, data/inst
system.switch_cpus.dtb.walker.requestOrigin_Completed::Inst            0                       # Table walker requests started/completed, data/inst
system.switch_cpus.dtb.walker.requestOrigin_Completed::total            0                       # Table walker requests started/completed, data/inst
system.switch_cpus.dtb.walker.requestOrigin::total            0                       # Table walker requests started/completed, data/inst
system.switch_cpus.dtb.walker.power_state.pwrStateResidencyTicks::UNDEFINED  21751360000                       # Cumulative time (in ticks) in various power states
system.switch_cpus.fetch.icacheStallCycles       258231                       # Number of cycles fetch is stalled on an Icache miss
system.switch_cpus.fetch.insts              128887464                       # Number of instructions fetch has processed
system.switch_cpus.fetch.branches            15188455                       # Number of branches that fetch encountered
system.switch_cpus.fetch.predictedBranches     14764915                       # Number of branches that fetch has predicted taken
system.switch_cpus.fetch.cycles              53859918                       # Number of cycles fetch has run and was not squashing or blocked
system.switch_cpus.fetch.squashCycles          520396                       # Number of cycles fetch has spent squashing
system.switch_cpus.fetch.miscStallCycles           53                       # Number of cycles fetch has spent waiting on interrupts,or bad addresses, or out of MSHRs
system.switch_cpus.fetch.cacheLines          18833715                       # Number of cache lines fetched
system.switch_cpus.fetch.nisnDist::samples     54378400                       # Number of instructions fetched each cycle (Total)
system.switch_cpus.fetch.nisnDist::mean      2.649328                       # Number of instructions fetched each cycle (Total)
system.switch_cpus.fetch.nisnDist::stdev     3.008365                       # Number of instructions fetched each cycle (Total)
system.switch_cpus.fetch.nisnDist::underflows            0      0.00%      0.00% # Number of instructions fetched each cycle (Total)
system.switch_cpus.fetch.nisnDist::0         24141872     44.40%     44.40% # Number of instructions fetched each cycle (Total)
system.switch_cpus.fetch.nisnDist::1          2906458      5.34%     49.74% # Number of instructions fetched each cycle (Total)
system.switch_cpus.fetch.nisnDist::2          4339348      7.98%     57.72% # Number of instructions fetched each cycle (Total)
system.switch_cpus.fetch.nisnDist::3          3437075      6.32%     64.04% # Number of instructions fetched each cycle (Total)
system.switch_cpus.fetch.nisnDist::4          5906481     10.86%     74.90% # Number of instructions fetched each cycle (Total)
system.switch_cpus.fetch.nisnDist::5          1444982      2.66%     77.56% # Number of instructions fetched each cycle (Total)
system.switch_cpus.fetch.nisnDist::6          2764222      5.08%     82.64% # Number of instructions fetched each cycle (Total)
system.switch_cpus.fetch.nisnDist::7           769997      1.42%     84.06% # Number of instructions fetched each cycle (Total)
system.switch_cpus.fetch.nisnDist::8          8667965     15.94%    100.00% # Number of instructions fetched each cycle (Total)
system.switch_cpus.fetch.nisnDist::overflows            0      0.00%    100.00% # Number of instructions fetched each cycle (Total)
system.switch_cpus.fetch.nisnDist::min_value            0                       # Number of instructions fetched each cycle (Total)
system.switch_cpus.fetch.nisnDist::max_value            8                       # Number of instructions fetched each cycle (Total)
system.switch_cpus.fetch.nisnDist::total     54378400                       # Number of instructions fetched each cycle (Total)
system.switch_cpus.fetch.branchRate          0.279310                       # Number of branch fetches per cycle
system.switch_cpus.fetch.rate                2.370196                       # Number of inst fetches per cycle
system.switch_cpus.itb.instHits                     0                       # ITB inst hits
system.switch_cpus.itb.instMisses                   0                       # ITB inst misses
system.switch_cpus.itb.readHits                     0                       # DTB read hits
system.switch_cpus.itb.readMisses                   0                       # DTB read misses
system.switch_cpus.itb.writeHits                    0                       # DTB write hits
system.switch_cpus.itb.writeMisses                  0                       # DTB write misses
system.switch_cpus.itb.inserts                      0                       # Number of times an entry is inserted into the TLB
system.switch_cpus.itb.flushTlb                     0                       # Number of times complete TLB was flushed
system.switch_cpus.itb.flushTlbMva                  0                       # Number of times TLB was flushed by MVA
system.switch_cpus.itb.flushTlbMvaAsid              0                       # Number of times TLB was flushed by MVA & ASID
system.switch_cpus.itb.flushTlbAsid                 0                       # Number of times TLB was flushed by ASID
system.switch_cpus.itb.flushedEntries               0                       # Number of entries that have been flushed from TLB
system.switch_cpus.itb.alignFaults                  0                       # Number of TLB faults due to alignment restrictions
system.switch_cpus.itb.prefetchFaults               0                       # Number of TLB faults due to prefetch
system.switch_cpus.itb.domainFaults                 0                       # Number of TLB faults due to domain restrictions
system.switch_cpus.itb.permsFaults                  0                       # Number of TLB faults due to permissions restrictions
system.switch_cpus.itb.readAccesses                 0                       # DTB read accesses
system.switch_cpus.itb.writeAccesses                0                       # DTB write accesses
system.switch_cpus.itb.instAccesses                 0                       # ITB inst accesses
system.switch_cpus.itb.hits                         0                       # Total TLB (inst and data) hits
system.switch_cpus.itb.misses                       0                       # Total TLB (inst and data) misses
system.switch_cpus.itb.accesses                     0                       # Total TLB (inst and data) accesses
system.switch_cpus.itb.stage2_mmu.stage2_tlb.instHits            0                       # ITB inst hits
system.switch_cpus.itb.stage2_mmu.stage2_tlb.instMisses            0                       # ITB inst misses
system.switch_cpus.itb.stage2_mmu.stage2_tlb.readHits            0                       # DTB read hits
system.switch_cpus.itb.stage2_mmu.stage2_tlb.readMisses            0                       # DTB read misses
system.switch_cpus.itb.stage2_mmu.stage2_tlb.writeHits            0                       # DTB write hits
system.switch_cpus.itb.stage2_mmu.stage2_tlb.writeMisses            0                       # DTB write misses
system.switch_cpus.itb.stage2_mmu.stage2_tlb.inserts            0                       # Number of times an entry is inserted into the TLB
system.switch_cpus.itb.stage2_mmu.stage2_tlb.flushTlb            0                       # Number of times complete TLB was flushed
system.switch_cpus.itb.stage2_mmu.stage2_tlb.flushTlbMva            0                       # Number of times TLB was flushed by MVA
system.switch_cpus.itb.stage2_mmu.stage2_tlb.flushTlbMvaAsid            0                       # Number of times TLB was flushed by MVA & ASID
system.switch_cpus.itb.stage2_mmu.stage2_tlb.flushTlbAsid            0                       # Number of times TLB was flushed by ASID
system.switch_cpus.itb.stage2_mmu.stage2_tlb.flushedEntries            0                       # Number of entries that have been flushed from TLB
system.switch_cpus.itb.stage2_mmu.stage2_tlb.alignFaults            0                       # Number of TLB faults due to alignment restrictions
system.switch_cpus.itb.stage2_mmu.stage2_tlb.prefetchFaults            0                       # Number of TLB faults due to prefetch
system.switch_cpus.itb.stage2_mmu.stage2_tlb.domainFaults            0                       # Number of TLB faults due to domain restrictions
system.switch_cpus.itb.stage2_mmu.stage2_tlb.permsFaults            0                       # Number of TLB faults due to permissions restrictions
system.switch_cpus.itb.stage2_mmu.stage2_tlb.readAccesses            0                       # DTB read accesses
system.switch_cpus.itb.stage2_mmu.stage2_tlb.writeAccesses            0                       # DTB write accesses
system.switch_cpus.itb.stage2_mmu.stage2_tlb.instAccesses            0                       # ITB inst accesses
system.switch_cpus.itb.stage2_mmu.stage2_tlb.hits            0                       # Total TLB (inst and data) hits
system.switch_cpus.itb.stage2_mmu.stage2_tlb.misses            0                       # Total TLB (inst and data) misses
system.switch_cpus.itb.stage2_mmu.stage2_tlb.accesses            0                       # Total TLB (inst and data) accesses
system.switch_cpus.itb.stage2_mmu.stage2_tlb.walker.walks            0                       # Table walker walks requested
system.switch_cpus.itb.stage2_mmu.stage2_tlb.walker.requestOrigin_Requested::Data            0                       # Table walker requests started/completed, data/inst
system.switch_cpus.itb.stage2_mmu.stage2_tlb.walker.requestOrigin_Requested::Inst            0                       # Table walker requests started/completed, data/inst
system.switch_cpus.itb.stage2_mmu.stage2_tlb.walker.requestOrigin_Requested::total            0                       # Table walker requests started/completed, data/inst
system.switch_cpus.itb.stage2_mmu.stage2_tlb.walker.requestOrigin_Completed::Data            0                       # Table walker requests started/completed, data/inst
system.switch_cpus.itb.stage2_mmu.stage2_tlb.walker.requestOrigin_Completed::Inst            0                       # Table walker requests started/completed, data/inst
system.switch_cpus.itb.stage2_mmu.stage2_tlb.walker.requestOrigin_Completed::total            0                       # Table walker requests started/completed, data/inst
system.switch_cpus.itb.stage2_mmu.stage2_tlb.walker.requestOrigin::total            0                       # Table walker requests started/completed, data/inst
system.switch_cpus.itb.stage2_mmu.stage2_tlb.walker.power_state.pwrStateResidencyTicks::UNDEFINED  21751360000                       # Cumulative time (in ticks) in various power states
system.switch_cpus.itb.walker.walks                 0                       # Table walker walks requested
system.switch_cpus.itb.walker.requestOrigin_Requested::Data            0                       # Table walker requests started/completed, data/inst
system.switch_cpus.itb.walker.requestOrigin_Requested::Inst            0                       # Table walker requests started/completed, data/inst
system.switch_cpus.itb.walker.requestOrigin_Requested::total            0                       # Table walker requests started/completed, data/inst
system.switch_cpus.itb.walker.requestOrigin_Completed::Data            0                       # Table walker requests started/completed, data/inst
system.switch_cpus.itb.walker.requestOrigin_Completed::Inst            0                       # Table walker requests started/completed, data/inst
system.switch_cpus.itb.walker.requestOrigin_Completed::total            0                       # Table walker requests started/completed, data/inst
system.switch_cpus.itb.walker.requestOrigin::total            0                       # Table walker requests started/completed, data/inst
system.switch_cpus.itb.walker.power_state.pwrStateResidencyTicks::UNDEFINED  21751360000                       # Cumulative time (in ticks) in various power states
system.switch_cpus.lsq0.forwLoads            18408690                       # Number of loads that had data forwarded from stores
system.switch_cpus.lsq0.squashedLoads         5751058                       # Number of loads squashed
system.switch_cpus.lsq0.ignoredResponses          177                       # Number of memory responses ignored because the instruction is squashed
system.switch_cpus.lsq0.memOrderViolation        14010                       # Number of memory ordering violations
system.switch_cpus.lsq0.squashedStores        4765420                       # Number of stores squashed
system.switch_cpus.lsq0.rescheduledLoads      2053913                       # Number of loads that were rescheduled
system.switch_cpus.lsq0.blockedByCache              0                       # Number of times an access to memory failed due to the cache being blocked
system.switch_cpus.power_state.pwrStateResidencyTicks::OFF  21751360000                       # Cumulative time (in ticks) in various power states
system.switch_cpus.rename.squashCycles         260198                       # Number of cycles rename is squashing
system.switch_cpus.rename.idleCycles         10441977                       # Number of cycles rename is idle
system.switch_cpus.rename.blockCycles        12123329                       # Number of cycles rename is blocking
system.switch_cpus.rename.serializeStallCycles          968                       # count of cycles rename stalledfor serializing inst
system.switch_cpus.rename.runCycles          13788706                       # Number of cycles rename is running
system.switch_cpus.rename.unblockCycles      17763222                       # Number of cycles rename is unblocking
system.switch_cpus.rename.renamedInsts      132911080                       # Number of instructions processed by rename
system.switch_cpus.rename.squashedInsts        504194                       # Number of squashed instructions processed by rename
system.switch_cpus.rename.IQFullEvents         128674                       # Number of times rename has blocked due to IQ full
system.switch_cpus.rename.SQFullEvents           7648                       # Number of times rename has blocked due to SQ full
system.switch_cpus.rename.fullRegistersEvents     16608655                       # Number of times there has been no free registers
system.switch_cpus.rename.renamedOperands    124357111                       # Number of destination operands rename has renamed
system.switch_cpus.rename.lookups           190638996                       # Number of register rename lookups that rename has made
system.switch_cpus.rename.intLookups        168602160                       # Number of integer rename lookups
system.switch_cpus.rename.committedMaps     104859964                       # Number of HB maps that are committed
system.switch_cpus.rename.undoneMaps         19497186                       # Number of HB maps that are undone due to squashing
system.switch_cpus.rename.serializing             173                       # count of serializing insts renamed
system.switch_cpus.rename.tempSerializing            0                       # count of temporary serializing insts renamed
system.switch_cpus.rename.skidInsts          46702801                       # count of insts added to the skid buffer
system.switch_cpus.rob.reads                159489635                       # The number of ROB reads
system.switch_cpus.rob.writes               268525007                       # The number of ROB writes
system.switch_cpus.thread_0.numInsts        100000000                       # Number of Instructions committed
system.switch_cpus.thread_0.numOps          110304951                       # Number of Ops committed
system.switch_cpus.thread_0.numMemRefs              0                       # Number of Memory References
system.tol2bus.trans_dist::ReadResp                57                       # Transaction distribution
system.tol2bus.trans_dist::WritebackDirty         2197                       # Transaction distribution
system.tol2bus.trans_dist::WritebackClean           55                       # Transaction distribution
system.tol2bus.trans_dist::HardPFReq             2378                       # Transaction distribution
system.tol2bus.trans_dist::ReadExReq             2195                       # Transaction distribution
system.tol2bus.trans_dist::ReadExResp            2195                       # Transaction distribution
system.tol2bus.trans_dist::ReadSharedReq           57                       # Transaction distribution
system.tol2bus.pkt_count_system.cpu.dcache.mem_side_port::system.l2.cpu_side_port         6756                       # Packet count per connected requestor and responder (bytes)
system.tol2bus.pkt_count::total                  6756                       # Packet count per connected requestor and responder (bytes)
system.tol2bus.pkt_size_system.cpu.dcache.mem_side_port::system.l2.cpu_side_port       576512                       # Cumulative packet size per connected requestor and responder (bytes)
system.tol2bus.pkt_size::total                 576512                       # Cumulative packet size per connected requestor and responder (bytes)
system.tol2bus.snoops                            2378                       # Total snoops (count)
system.tol2bus.snoopTraffic                         0                       # Total snoop traffic (bytes)
system.tol2bus.snoop_fanout::samples             4630                       # Request fanout histogram
system.tol2bus.snoop_fanout::mean                   0                       # Request fanout histogram
system.tol2bus.snoop_fanout::stdev                  0                       # Request fanout histogram
system.tol2bus.snoop_fanout::underflows             0      0.00%      0.00% # Request fanout histogram
system.tol2bus.snoop_fanout::0                   4630    100.00%    100.00% # Request fanout histogram
system.tol2bus.snoop_fanout::1                      0      0.00%    100.00% # Request fanout histogram
system.tol2bus.snoop_fanout::2                      0      0.00%    100.00% # Request fanout histogram
system.tol2bus.snoop_fanout::3                      0      0.00%    100.00% # Request fanout histogram
system.tol2bus.snoop_fanout::4                      0      0.00%    100.00% # Request fanout histogram
system.tol2bus.snoop_fanout::overflows              0      0.00%    100.00% # Request fanout histogram
system.tol2bus.snoop_fanout::min_value              0                       # Request fanout histogram
system.tol2bus.snoop_fanout::max_value              0                       # Request fanout histogram
system.tol2bus.snoop_fanout::total               4630                       # Request fanout histogram
system.tol2bus.power_state.pwrStateResidencyTicks::UNDEFINED  21751360000                       # Cumulative time (in ticks) in various power states
system.tol2bus.reqLayer0.occupancy            5404800                       # Layer occupancy (ticks)
system.tol2bus.reqLayer0.utilization              0.0                       # Layer utilization (%)
system.tol2bus.respLayer1.occupancy           4504000                       # Layer occupancy (ticks)
system.tol2bus.respLayer1.utilization             0.0                       # Layer utilization (%)
system.voltage_domain.voltage                       1                       # Voltage in Volts

---------- End Simulation Statistics   ----------
