
---------- Begin Simulation Statistics ----------
final_tick                               6730696782000                       # Number of ticks from beginning of simulation (restored from checkpoints and never reset)
host_inst_rate                                 205386                       # Simulator instruction rate (inst/s)
host_mem_usage                               17023184                       # Number of bytes of host memory used
host_op_rate                                   213734                       # Simulator op (including micro ops) rate (op/s)
host_seconds                                     4.87                       # Real time elapsed on the host
host_tick_rate                              173053646                       # Simulator tick rate (ticks/s)
sim_freq                                 1000000000000                       # Frequency of simulated ticks
sim_insts                                     1000024                       # Number of instructions simulated
sim_ops                                       1040681                       # Number of ops (including micro ops) simulated
sim_seconds                                  0.000843                       # Number of seconds simulated
sim_ticks                                   842610000                       # Number of ticks simulated
system.cpu.Branches                                 7                       # Number of branches fetched
system.cpu.committedInsts                          24                       # Number of instructions committed
system.cpu.committedOps                            25                       # Number of ops (including micro ops) committed
system.cpu.idle_fraction                            0                       # Percentage of idle cycles
system.cpu.not_idle_fraction                        1                       # Percentage of non-idle cycles
system.cpu.numCycles                               25                       # number of cpu cycles simulated
system.cpu.numWorkItemsCompleted                    0                       # number of work items this cpu completed
system.cpu.numWorkItemsStarted                      0                       # number of work items this cpu started
system.cpu.num_busy_cycles                         25                       # Number of busy cycles
system.cpu.num_cc_register_reads                   27                       # number of times the CC registers were read
system.cpu.num_cc_register_writes                  18                       # number of times the CC registers were written
system.cpu.num_conditional_control_insts            7                       # number of instructions that are conditional controls
system.cpu.num_fp_alu_accesses                      0                       # Number of float alu accesses
system.cpu.num_fp_insts                             0                       # number of float instructions
system.cpu.num_fp_register_reads                    0                       # number of times the floating registers were read
system.cpu.num_fp_register_writes                   0                       # number of times the floating registers were written
system.cpu.num_func_calls                           0                       # number of times a function call or return occured
system.cpu.num_idle_cycles                          0                       # Number of idle cycles
system.cpu.num_int_alu_accesses                    18                       # Number of integer alu accesses
system.cpu.num_int_insts                           18                       # number of integer instructions
system.cpu.num_int_register_reads                  24                       # number of times the integer registers were read
system.cpu.num_int_register_writes                 17                       # number of times the integer registers were written
system.cpu.num_load_insts                           7                       # Number of load instructions
system.cpu.num_mem_refs                             7                       # number of memory refs
system.cpu.num_store_insts                          0                       # Number of store instructions
system.cpu.num_vec_alu_accesses                     0                       # Number of vector alu accesses
system.cpu.num_vec_insts                            0                       # number of vector instructions
system.cpu.num_vec_register_reads                   0                       # number of times the vector registers were read
system.cpu.num_vec_register_writes                  0                       # number of times the vector registers were written
system.cpu.op_class::No_OpClass                     0      0.00%      0.00% # Class of executed instruction
system.cpu.op_class::IntAlu                        18     72.00%     72.00% # Class of executed instruction
system.cpu.op_class::IntMult                        0      0.00%     72.00% # Class of executed instruction
system.cpu.op_class::IntDiv                         0      0.00%     72.00% # Class of executed instruction
system.cpu.op_class::FloatAdd                       0      0.00%     72.00% # Class of executed instruction
system.cpu.op_class::FloatCmp                       0      0.00%     72.00% # Class of executed instruction
system.cpu.op_class::FloatCvt                       0      0.00%     72.00% # Class of executed instruction
system.cpu.op_class::FloatMult                      0      0.00%     72.00% # Class of executed instruction
system.cpu.op_class::FloatMultAcc                   0      0.00%     72.00% # Class of executed instruction
system.cpu.op_class::FloatDiv                       0      0.00%     72.00% # Class of executed instruction
system.cpu.op_class::FloatMisc                      0      0.00%     72.00% # Class of executed instruction
system.cpu.op_class::FloatSqrt                      0      0.00%     72.00% # Class of executed instruction
system.cpu.op_class::SimdAdd                        0      0.00%     72.00% # Class of executed instruction
system.cpu.op_class::SimdAddAcc                     0      0.00%     72.00% # Class of executed instruction
system.cpu.op_class::SimdAlu                        0      0.00%     72.00% # Class of executed instruction
system.cpu.op_class::SimdCmp                        0      0.00%     72.00% # Class of executed instruction
system.cpu.op_class::SimdCvt                        0      0.00%     72.00% # Class of executed instruction
system.cpu.op_class::SimdMisc                       0      0.00%     72.00% # Class of executed instruction
system.cpu.op_class::SimdMult                       0      0.00%     72.00% # Class of executed instruction
system.cpu.op_class::SimdMultAcc                    0      0.00%     72.00% # Class of executed instruction
system.cpu.op_class::SimdShift                      0      0.00%     72.00% # Class of executed instruction
system.cpu.op_class::SimdShiftAcc                   0      0.00%     72.00% # Class of executed instruction
system.cpu.op_class::SimdDiv                        0      0.00%     72.00% # Class of executed instruction
system.cpu.op_class::SimdSqrt                       0      0.00%     72.00% # Class of executed instruction
system.cpu.op_class::SimdFloatAdd                   0      0.00%     72.00% # Class of executed instruction
system.cpu.op_class::SimdFloatAlu                   0      0.00%     72.00% # Class of executed instruction
system.cpu.op_class::SimdFloatCmp                   0      0.00%     72.00% # Class of executed instruction
system.cpu.op_class::SimdFloatCvt                   0      0.00%     72.00% # Class of executed instruction
system.cpu.op_class::SimdFloatDiv                   0      0.00%     72.00% # Class of executed instruction
system.cpu.op_class::SimdFloatMisc                  0      0.00%     72.00% # Class of executed instruction
system.cpu.op_class::SimdFloatMult                  0      0.00%     72.00% # Class of executed instruction
system.cpu.op_class::SimdFloatMultAcc               0      0.00%     72.00% # Class of executed instruction
system.cpu.op_class::SimdFloatSqrt                  0      0.00%     72.00% # Class of executed instruction
system.cpu.op_class::SimdReduceAdd                  0      0.00%     72.00% # Class of executed instruction
system.cpu.op_class::SimdReduceAlu                  0      0.00%     72.00% # Class of executed instruction
system.cpu.op_class::SimdReduceCmp                  0      0.00%     72.00% # Class of executed instruction
system.cpu.op_class::SimdFloatReduceAdd             0      0.00%     72.00% # Class of executed instruction
system.cpu.op_class::SimdFloatReduceCmp             0      0.00%     72.00% # Class of executed instruction
system.cpu.op_class::SimdAes                        0      0.00%     72.00% # Class of executed instruction
system.cpu.op_class::SimdAesMix                     0      0.00%     72.00% # Class of executed instruction
system.cpu.op_class::SimdSha1Hash                   0      0.00%     72.00% # Class of executed instruction
system.cpu.op_class::SimdSha1Hash2                  0      0.00%     72.00% # Class of executed instruction
system.cpu.op_class::SimdSha256Hash                 0      0.00%     72.00% # Class of executed instruction
system.cpu.op_class::SimdSha256Hash2                0      0.00%     72.00% # Class of executed instruction
system.cpu.op_class::SimdShaSigma2                  0      0.00%     72.00% # Class of executed instruction
system.cpu.op_class::SimdShaSigma3                  0      0.00%     72.00% # Class of executed instruction
system.cpu.op_class::SimdPredAlu                    0      0.00%     72.00% # Class of executed instruction
system.cpu.op_class::MemRead                        7     28.00%    100.00% # Class of executed instruction
system.cpu.op_class::MemWrite                       0      0.00%    100.00% # Class of executed instruction
system.cpu.op_class::FloatMemRead                   0      0.00%    100.00% # Class of executed instruction
system.cpu.op_class::FloatMemWrite                  0      0.00%    100.00% # Class of executed instruction
system.cpu.op_class::IprAccess                      0      0.00%    100.00% # Class of executed instruction
system.cpu.op_class::InstPrefetch                   0      0.00%    100.00% # Class of executed instruction
system.cpu.op_class::total                         25                       # Class of executed instruction
system.cpu.workload.numSyscalls                     0                       # Number of system calls
system.membus.snoop_filter.hit_multi_requests            0                       # Number of requests hitting in the snoop filter with multiple (>1) holders of the requested data.
system.membus.snoop_filter.hit_multi_snoops            0                       # Number of snoops hitting in the snoop filter with multiple (>1) holders of the requested data.
system.membus.snoop_filter.hit_single_requests        30743                       # Number of requests hitting in the snoop filter with a single holder of the requested data.
system.membus.snoop_filter.hit_single_snoops            0                       # Number of snoops hitting in the snoop filter with a single holder of the requested data.
system.membus.snoop_filter.tot_requests         69820                       # Total number of requests made to the snoop filter.
system.membus.snoop_filter.tot_snoops               0                       # Total number of snoops made to the snoop filter.
system.switch_cpus.cc_regfile_reads            869865                       # number of cc regfile reads
system.switch_cpus.cc_regfile_writes           706854                       # number of cc regfile writes
system.switch_cpus.committedInsts             1000000                       # Number of Instructions Simulated
system.switch_cpus.committedOps               1040656                       # Number of Ops (including micro ops) Simulated
system.switch_cpus.cpi                       2.106500                       # CPI: Cycles Per Instruction
system.switch_cpus.cpi_total                 2.106500                       # CPI: Total CPI of All Threads
system.switch_cpus.idleCycles                    3106                       # Total number of cycles that the CPU has spent unscheduled due to idling
system.switch_cpus.iew.branchMispredicts        13588                       # Number of branch mispredicts detected at execute
system.switch_cpus.iew.exec_branches           317324                       # Number of branches executed
system.switch_cpus.iew.exec_nop                  1973                       # number of nop insts executed
system.switch_cpus.iew.exec_rate             0.700589                       # Inst execution rate
system.switch_cpus.iew.exec_refs               588582                       # number of memory reference insts executed
system.switch_cpus.iew.exec_stores              51291                       # Number of stores executed
system.switch_cpus.iew.exec_swp                     0                       # number of swp insts executed
system.switch_cpus.iew.iewBlockCycles          300117                       # Number of cycles IEW is blocking
system.switch_cpus.iew.iewDispLoadInsts        535832                       # Number of dispatched load instructions
system.switch_cpus.iew.iewDispNonSpecInsts            0                       # Number of dispatched non-speculative instructions
system.switch_cpus.iew.iewDispSquashedInsts            0                       # Number of squashed instructions skipped by dispatch
system.switch_cpus.iew.iewDispStoreInsts        76926                       # Number of dispatched store instructions
system.switch_cpus.iew.iewDispatchedInsts      1760731                       # Number of instructions dispatched to IQ
system.switch_cpus.iew.iewExecLoadInsts        537291                       # Number of load instructions executed
system.switch_cpus.iew.iewExecSquashedInsts        19297                       # Number of squashed instructions skipped in execute
system.switch_cpus.iew.iewExecutedInsts       1475791                       # Number of executed instructions
system.switch_cpus.iew.iewIQFullEvents            962                       # Number of times the IQ has become full, causing a stall
system.switch_cpus.iew.iewIdleCycles                0                       # Number of cycles IEW is idle
system.switch_cpus.iew.iewLSQFullEvents             0                       # Number of times the LSQ has become full, causing a stall
system.switch_cpus.iew.iewSquashCycles          12351                       # Number of cycles IEW is squashing
system.switch_cpus.iew.iewUnblockCycles          1580                       # Number of cycles IEW is unblocking
system.switch_cpus.iew.memOrderViolationEvents           51                       # Number of memory order violations
system.switch_cpus.iew.predictedNotTakenIncorrect         8979                       # Number of branches that were predicted not taken incorrectly
system.switch_cpus.iew.predictedTakenIncorrect         4609                       # Number of branches that were predicted taken incorrectly
system.switch_cpus.iew.wb_consumers           1838125                       # num instructions consuming a value
system.switch_cpus.iew.wb_count               1329266                       # cumulative count of insts written-back
system.switch_cpus.iew.wb_fanout             0.499629                       # average fanout of values written-back
system.switch_cpus.iew.wb_producers            918381                       # num instructions producing a value
system.switch_cpus.iew.wb_rate               0.631031                       # insts written-back per cycle
system.switch_cpus.iew.wb_sent                1334721                       # cumulative count of insts sent to commit
system.switch_cpus.int_regfile_reads          1563523                       # number of integer regfile reads
system.switch_cpus.int_regfile_writes          997087                       # number of integer regfile writes
system.switch_cpus.ipc                       0.474721                       # IPC: Instructions Per Cycle
system.switch_cpus.ipc_total                 0.474721                       # IPC: Total IPC of All Threads
system.switch_cpus.iq.FU_type_0::No_OpClass           16      0.00%      0.00% # Type of FU issued
system.switch_cpus.iq.FU_type_0::IntAlu        887274     59.35%     59.35% # Type of FU issued
system.switch_cpus.iq.FU_type_0::IntMult         1836      0.12%     59.47% # Type of FU issued
system.switch_cpus.iq.FU_type_0::IntDiv           818      0.05%     59.52% # Type of FU issued
system.switch_cpus.iq.FU_type_0::FloatAdd            0      0.00%     59.52% # Type of FU issued
system.switch_cpus.iq.FU_type_0::FloatCmp            0      0.00%     59.52% # Type of FU issued
system.switch_cpus.iq.FU_type_0::FloatCvt            0      0.00%     59.52% # Type of FU issued
system.switch_cpus.iq.FU_type_0::FloatMult            0      0.00%     59.52% # Type of FU issued
system.switch_cpus.iq.FU_type_0::FloatMultAcc            0      0.00%     59.52% # Type of FU issued
system.switch_cpus.iq.FU_type_0::FloatDiv            0      0.00%     59.52% # Type of FU issued
system.switch_cpus.iq.FU_type_0::FloatMisc            0      0.00%     59.52% # Type of FU issued
system.switch_cpus.iq.FU_type_0::FloatSqrt            0      0.00%     59.52% # Type of FU issued
system.switch_cpus.iq.FU_type_0::SimdAdd            0      0.00%     59.52% # Type of FU issued
system.switch_cpus.iq.FU_type_0::SimdAddAcc            0      0.00%     59.52% # Type of FU issued
system.switch_cpus.iq.FU_type_0::SimdAlu            0      0.00%     59.52% # Type of FU issued
system.switch_cpus.iq.FU_type_0::SimdCmp            0      0.00%     59.52% # Type of FU issued
system.switch_cpus.iq.FU_type_0::SimdCvt            0      0.00%     59.52% # Type of FU issued
system.switch_cpus.iq.FU_type_0::SimdMisc            0      0.00%     59.52% # Type of FU issued
system.switch_cpus.iq.FU_type_0::SimdMult            0      0.00%     59.52% # Type of FU issued
system.switch_cpus.iq.FU_type_0::SimdMultAcc            0      0.00%     59.52% # Type of FU issued
system.switch_cpus.iq.FU_type_0::SimdShift            0      0.00%     59.52% # Type of FU issued
system.switch_cpus.iq.FU_type_0::SimdShiftAcc            0      0.00%     59.52% # Type of FU issued
system.switch_cpus.iq.FU_type_0::SimdDiv            0      0.00%     59.52% # Type of FU issued
system.switch_cpus.iq.FU_type_0::SimdSqrt            0      0.00%     59.52% # Type of FU issued
system.switch_cpus.iq.FU_type_0::SimdFloatAdd            0      0.00%     59.52% # Type of FU issued
system.switch_cpus.iq.FU_type_0::SimdFloatAlu            0      0.00%     59.52% # Type of FU issued
system.switch_cpus.iq.FU_type_0::SimdFloatCmp            0      0.00%     59.52% # Type of FU issued
system.switch_cpus.iq.FU_type_0::SimdFloatCvt            0      0.00%     59.52% # Type of FU issued
system.switch_cpus.iq.FU_type_0::SimdFloatDiv            0      0.00%     59.52% # Type of FU issued
system.switch_cpus.iq.FU_type_0::SimdFloatMisc            0      0.00%     59.52% # Type of FU issued
system.switch_cpus.iq.FU_type_0::SimdFloatMult            0      0.00%     59.52% # Type of FU issued
system.switch_cpus.iq.FU_type_0::SimdFloatMultAcc            0      0.00%     59.52% # Type of FU issued
system.switch_cpus.iq.FU_type_0::SimdFloatSqrt            0      0.00%     59.52% # Type of FU issued
system.switch_cpus.iq.FU_type_0::SimdReduceAdd            0      0.00%     59.52% # Type of FU issued
system.switch_cpus.iq.FU_type_0::SimdReduceAlu            0      0.00%     59.52% # Type of FU issued
system.switch_cpus.iq.FU_type_0::SimdReduceCmp            0      0.00%     59.52% # Type of FU issued
system.switch_cpus.iq.FU_type_0::SimdFloatReduceAdd            0      0.00%     59.52% # Type of FU issued
system.switch_cpus.iq.FU_type_0::SimdFloatReduceCmp            0      0.00%     59.52% # Type of FU issued
system.switch_cpus.iq.FU_type_0::SimdAes            0      0.00%     59.52% # Type of FU issued
system.switch_cpus.iq.FU_type_0::SimdAesMix            0      0.00%     59.52% # Type of FU issued
system.switch_cpus.iq.FU_type_0::SimdSha1Hash            0      0.00%     59.52% # Type of FU issued
system.switch_cpus.iq.FU_type_0::SimdSha1Hash2            0      0.00%     59.52% # Type of FU issued
system.switch_cpus.iq.FU_type_0::SimdSha256Hash            0      0.00%     59.52% # Type of FU issued
system.switch_cpus.iq.FU_type_0::SimdSha256Hash2            0      0.00%     59.52% # Type of FU issued
system.switch_cpus.iq.FU_type_0::SimdShaSigma2            0      0.00%     59.52% # Type of FU issued
system.switch_cpus.iq.FU_type_0::SimdShaSigma3            0      0.00%     59.52% # Type of FU issued
system.switch_cpus.iq.FU_type_0::SimdPredAlu            0      0.00%     59.52% # Type of FU issued
system.switch_cpus.iq.FU_type_0::MemRead       550633     36.83%     96.35% # Type of FU issued
system.switch_cpus.iq.FU_type_0::MemWrite        54514      3.65%    100.00% # Type of FU issued
system.switch_cpus.iq.FU_type_0::FloatMemRead            0      0.00%    100.00% # Type of FU issued
system.switch_cpus.iq.FU_type_0::FloatMemWrite            0      0.00%    100.00% # Type of FU issued
system.switch_cpus.iq.FU_type_0::IprAccess            0      0.00%    100.00% # Type of FU issued
system.switch_cpus.iq.FU_type_0::InstPrefetch            0      0.00%    100.00% # Type of FU issued
system.switch_cpus.iq.FU_type_0::total        1495091                       # Type of FU issued
system.switch_cpus.iq.fp_alu_accesses               0                       # Number of floating point alu accesses
system.switch_cpus.iq.fp_inst_queue_reads            0                       # Number of floating instruction queue reads
system.switch_cpus.iq.fp_inst_queue_wakeup_accesses            0                       # Number of floating instruction queue wakeup accesses
system.switch_cpus.iq.fp_inst_queue_writes            0                       # Number of floating instruction queue writes
system.switch_cpus.iq.fu_busy_cnt              590971                       # FU busy when requested
system.switch_cpus.iq.fu_busy_rate           0.395274                       # FU busy rate (busy events/executed inst)
system.switch_cpus.iq.fu_full::No_OpClass            0      0.00%      0.00% # attempts to use FU when none available
system.switch_cpus.iq.fu_full::IntAlu          191762     32.45%     32.45% # attempts to use FU when none available
system.switch_cpus.iq.fu_full::IntMult            207      0.04%     32.48% # attempts to use FU when none available
system.switch_cpus.iq.fu_full::IntDiv              15      0.00%     32.49% # attempts to use FU when none available
system.switch_cpus.iq.fu_full::FloatAdd             0      0.00%     32.49% # attempts to use FU when none available
system.switch_cpus.iq.fu_full::FloatCmp             0      0.00%     32.49% # attempts to use FU when none available
system.switch_cpus.iq.fu_full::FloatCvt             0      0.00%     32.49% # attempts to use FU when none available
system.switch_cpus.iq.fu_full::FloatMult            0      0.00%     32.49% # attempts to use FU when none available
system.switch_cpus.iq.fu_full::FloatMultAcc            0      0.00%     32.49% # attempts to use FU when none available
system.switch_cpus.iq.fu_full::FloatDiv             0      0.00%     32.49% # attempts to use FU when none available
system.switch_cpus.iq.fu_full::FloatMisc            0      0.00%     32.49% # attempts to use FU when none available
system.switch_cpus.iq.fu_full::FloatSqrt            0      0.00%     32.49% # attempts to use FU when none available
system.switch_cpus.iq.fu_full::SimdAdd              0      0.00%     32.49% # attempts to use FU when none available
system.switch_cpus.iq.fu_full::SimdAddAcc            0      0.00%     32.49% # attempts to use FU when none available
system.switch_cpus.iq.fu_full::SimdAlu              0      0.00%     32.49% # attempts to use FU when none available
system.switch_cpus.iq.fu_full::SimdCmp              0      0.00%     32.49% # attempts to use FU when none available
system.switch_cpus.iq.fu_full::SimdCvt              0      0.00%     32.49% # attempts to use FU when none available
system.switch_cpus.iq.fu_full::SimdMisc             0      0.00%     32.49% # attempts to use FU when none available
system.switch_cpus.iq.fu_full::SimdMult             0      0.00%     32.49% # attempts to use FU when none available
system.switch_cpus.iq.fu_full::SimdMultAcc            0      0.00%     32.49% # attempts to use FU when none available
system.switch_cpus.iq.fu_full::SimdShift            0      0.00%     32.49% # attempts to use FU when none available
system.switch_cpus.iq.fu_full::SimdShiftAcc            0      0.00%     32.49% # attempts to use FU when none available
system.switch_cpus.iq.fu_full::SimdDiv              0      0.00%     32.49% # attempts to use FU when none available
system.switch_cpus.iq.fu_full::SimdSqrt             0      0.00%     32.49% # attempts to use FU when none available
system.switch_cpus.iq.fu_full::SimdFloatAdd            0      0.00%     32.49% # attempts to use FU when none available
system.switch_cpus.iq.fu_full::SimdFloatAlu            0      0.00%     32.49% # attempts to use FU when none available
system.switch_cpus.iq.fu_full::SimdFloatCmp            0      0.00%     32.49% # attempts to use FU when none available
system.switch_cpus.iq.fu_full::SimdFloatCvt            0      0.00%     32.49% # attempts to use FU when none available
system.switch_cpus.iq.fu_full::SimdFloatDiv            0      0.00%     32.49% # attempts to use FU when none available
system.switch_cpus.iq.fu_full::SimdFloatMisc            0      0.00%     32.49% # attempts to use FU when none available
system.switch_cpus.iq.fu_full::SimdFloatMult            0      0.00%     32.49% # attempts to use FU when none available
system.switch_cpus.iq.fu_full::SimdFloatMultAcc            0      0.00%     32.49% # attempts to use FU when none available
system.switch_cpus.iq.fu_full::SimdFloatSqrt            0      0.00%     32.49% # attempts to use FU when none available
system.switch_cpus.iq.fu_full::SimdReduceAdd            0      0.00%     32.49% # attempts to use FU when none available
system.switch_cpus.iq.fu_full::SimdReduceAlu            0      0.00%     32.49% # attempts to use FU when none available
system.switch_cpus.iq.fu_full::SimdReduceCmp            0      0.00%     32.49% # attempts to use FU when none available
system.switch_cpus.iq.fu_full::SimdFloatReduceAdd            0      0.00%     32.49% # attempts to use FU when none available
system.switch_cpus.iq.fu_full::SimdFloatReduceCmp            0      0.00%     32.49% # attempts to use FU when none available
system.switch_cpus.iq.fu_full::SimdAes              0      0.00%     32.49% # attempts to use FU when none available
system.switch_cpus.iq.fu_full::SimdAesMix            0      0.00%     32.49% # attempts to use FU when none available
system.switch_cpus.iq.fu_full::SimdSha1Hash            0      0.00%     32.49% # attempts to use FU when none available
system.switch_cpus.iq.fu_full::SimdSha1Hash2            0      0.00%     32.49% # attempts to use FU when none available
system.switch_cpus.iq.fu_full::SimdSha256Hash            0      0.00%     32.49% # attempts to use FU when none available
system.switch_cpus.iq.fu_full::SimdSha256Hash2            0      0.00%     32.49% # attempts to use FU when none available
system.switch_cpus.iq.fu_full::SimdShaSigma2            0      0.00%     32.49% # attempts to use FU when none available
system.switch_cpus.iq.fu_full::SimdShaSigma3            0      0.00%     32.49% # attempts to use FU when none available
system.switch_cpus.iq.fu_full::SimdPredAlu            0      0.00%     32.49% # attempts to use FU when none available
system.switch_cpus.iq.fu_full::MemRead         385628     65.25%     97.74% # attempts to use FU when none available
system.switch_cpus.iq.fu_full::MemWrite         13359      2.26%    100.00% # attempts to use FU when none available
system.switch_cpus.iq.fu_full::FloatMemRead            0      0.00%    100.00% # attempts to use FU when none available
system.switch_cpus.iq.fu_full::FloatMemWrite            0      0.00%    100.00% # attempts to use FU when none available
system.switch_cpus.iq.fu_full::IprAccess            0      0.00%    100.00% # attempts to use FU when none available
system.switch_cpus.iq.fu_full::InstPrefetch            0      0.00%    100.00% # attempts to use FU when none available
system.switch_cpus.iq.int_alu_accesses        2086046                       # Number of integer alu accesses
system.switch_cpus.iq.int_inst_queue_reads      5751940                       # Number of integer instruction queue reads
system.switch_cpus.iq.int_inst_queue_wakeup_accesses      1329266                       # Number of integer instruction queue wakeup accesses
system.switch_cpus.iq.int_inst_queue_writes      2476789                       # Number of integer instruction queue writes
system.switch_cpus.iq.iqInstsAdded            1758758                       # Number of instructions added to the IQ (excludes non-spec)
system.switch_cpus.iq.iqInstsIssued           1495091                       # Number of instructions issued
system.switch_cpus.iq.iqSquashedInstsExamined       717983                       # Number of squashed instructions iterated over during squash; mainly for profiling
system.switch_cpus.iq.iqSquashedInstsIssued        67396                       # Number of squashed instructions issued
system.switch_cpus.iq.iqSquashedOperandsExamined       763077                       # Number of squashed operands that are examined and possibly removed from graph
system.switch_cpus.iq.issued_per_cycle::samples      2103394                       # Number of insts issued each cycle
system.switch_cpus.iq.issued_per_cycle::mean     0.710799                       # Number of insts issued each cycle
system.switch_cpus.iq.issued_per_cycle::stdev     1.077993                       # Number of insts issued each cycle
system.switch_cpus.iq.issued_per_cycle::underflows            0      0.00%      0.00% # Number of insts issued each cycle
system.switch_cpus.iq.issued_per_cycle::0      1326689     63.07%     63.07% # Number of insts issued each cycle
system.switch_cpus.iq.issued_per_cycle::1       317979     15.12%     78.19% # Number of insts issued each cycle
system.switch_cpus.iq.issued_per_cycle::2       226854     10.79%     88.98% # Number of insts issued each cycle
system.switch_cpus.iq.issued_per_cycle::3       204204      9.71%     98.68% # Number of insts issued each cycle
system.switch_cpus.iq.issued_per_cycle::4        27548      1.31%     99.99% # Number of insts issued each cycle
system.switch_cpus.iq.issued_per_cycle::5          120      0.01%    100.00% # Number of insts issued each cycle
system.switch_cpus.iq.issued_per_cycle::6            0      0.00%    100.00% # Number of insts issued each cycle
system.switch_cpus.iq.issued_per_cycle::7            0      0.00%    100.00% # Number of insts issued each cycle
system.switch_cpus.iq.issued_per_cycle::8            0      0.00%    100.00% # Number of insts issued each cycle
system.switch_cpus.iq.issued_per_cycle::overflows            0      0.00%    100.00% # Number of insts issued each cycle
system.switch_cpus.iq.issued_per_cycle::min_value            0                       # Number of insts issued each cycle
system.switch_cpus.iq.issued_per_cycle::max_value            5                       # Number of insts issued each cycle
system.switch_cpus.iq.issued_per_cycle::total      2103394                       # Number of insts issued each cycle
system.switch_cpus.iq.rate                   0.709751                       # Inst issue rate
system.switch_cpus.iq.vec_alu_accesses              0                       # Number of vector alu accesses
system.switch_cpus.iq.vec_inst_queue_reads            0                       # Number of vector instruction queue reads
system.switch_cpus.iq.vec_inst_queue_wakeup_accesses            0                       # Number of vector instruction queue wakeup accesses
system.switch_cpus.iq.vec_inst_queue_writes            0                       # Number of vector instruction queue writes
system.switch_cpus.memDep0.conflictingLoads        19461                       # Number of conflicting loads.
system.switch_cpus.memDep0.conflictingStores         3172                       # Number of conflicting stores.
system.switch_cpus.memDep0.insertedLoads       535832                       # Number of loads inserted to the mem dependence unit.
system.switch_cpus.memDep0.insertedStores        76926                       # Number of stores inserted to the mem dependence unit.
system.switch_cpus.misc_regfile_reads         2963273                       # number of misc regfile reads
system.switch_cpus.misc_regfile_writes              1                       # number of misc regfile writes
system.switch_cpus.numCycles                  2106500                       # number of cpu cycles simulated
system.switch_cpus.numWorkItemsCompleted            0                       # number of work items this cpu completed
system.switch_cpus.numWorkItemsStarted              0                       # number of work items this cpu started
system.switch_cpus.timesIdled                      43                       # Number of times that the entire CPU went into an idle state and unscheduled itself
system.switch_cpus.vec_regfile_writes              44                       # number of vector regfile writes
system.tol2bus.snoop_filter.hit_multi_requests            0                       # Number of requests hitting in the snoop filter with multiple (>1) holders of the requested data.
system.tol2bus.snoop_filter.hit_multi_snoops            0                       # Number of snoops hitting in the snoop filter with multiple (>1) holders of the requested data.
system.tol2bus.snoop_filter.hit_single_requests        70546                       # Number of requests hitting in the snoop filter with a single holder of the requested data.
system.tol2bus.snoop_filter.hit_single_snoops          369                       # Number of snoops hitting in the snoop filter with a single holder of the requested data.
system.tol2bus.snoop_filter.tot_requests       141391                       # Total number of requests made to the snoop filter.
system.tol2bus.snoop_filter.tot_snoops            369                       # Total number of snoops made to the snoop filter.
system.clk_domain.clock                          1000                       # Clock period in ticks
system.cpu.dcache.demand_hits::.cpu.data            3                       # number of demand (read+write) hits
system.cpu.dcache.demand_hits::.switch_cpus.data       299423                       # number of demand (read+write) hits
system.cpu.dcache.demand_hits::total           299426                       # number of demand (read+write) hits
system.cpu.dcache.overall_hits::.cpu.data            3                       # number of overall hits
system.cpu.dcache.overall_hits::.switch_cpus.data       299423                       # number of overall hits
system.cpu.dcache.overall_hits::total          299426                       # number of overall hits
system.cpu.dcache.demand_misses::.cpu.data            4                       # number of demand (read+write) misses
system.cpu.dcache.demand_misses::.switch_cpus.data       136078                       # number of demand (read+write) misses
system.cpu.dcache.demand_misses::total         136082                       # number of demand (read+write) misses
system.cpu.dcache.overall_misses::.cpu.data            4                       # number of overall misses
system.cpu.dcache.overall_misses::.switch_cpus.data       136078                       # number of overall misses
system.cpu.dcache.overall_misses::total        136082                       # number of overall misses
system.cpu.dcache.demand_miss_latency::.switch_cpus.data   5284405398                       # number of demand (read+write) miss cycles
system.cpu.dcache.demand_miss_latency::total   5284405398                       # number of demand (read+write) miss cycles
system.cpu.dcache.overall_miss_latency::.switch_cpus.data   5284405398                       # number of overall miss cycles
system.cpu.dcache.overall_miss_latency::total   5284405398                       # number of overall miss cycles
system.cpu.dcache.demand_accesses::.cpu.data            7                       # number of demand (read+write) accesses
system.cpu.dcache.demand_accesses::.switch_cpus.data       435501                       # number of demand (read+write) accesses
system.cpu.dcache.demand_accesses::total       435508                       # number of demand (read+write) accesses
system.cpu.dcache.overall_accesses::.cpu.data            7                       # number of overall (read+write) accesses
system.cpu.dcache.overall_accesses::.switch_cpus.data       435501                       # number of overall (read+write) accesses
system.cpu.dcache.overall_accesses::total       435508                       # number of overall (read+write) accesses
system.cpu.dcache.demand_miss_rate::.cpu.data     0.571429                       # miss rate for demand accesses
system.cpu.dcache.demand_miss_rate::.switch_cpus.data     0.312463                       # miss rate for demand accesses
system.cpu.dcache.demand_miss_rate::total     0.312467                       # miss rate for demand accesses
system.cpu.dcache.overall_miss_rate::.cpu.data     0.571429                       # miss rate for overall accesses
system.cpu.dcache.overall_miss_rate::.switch_cpus.data     0.312463                       # miss rate for overall accesses
system.cpu.dcache.overall_miss_rate::total     0.312467                       # miss rate for overall accesses
system.cpu.dcache.demand_avg_miss_latency::.switch_cpus.data 38833.649804                       # average overall miss latency
system.cpu.dcache.demand_avg_miss_latency::total 38832.508326                       # average overall miss latency
system.cpu.dcache.overall_avg_miss_latency::.switch_cpus.data 38833.649804                       # average overall miss latency
system.cpu.dcache.overall_avg_miss_latency::total 38832.508326                       # average overall miss latency
system.cpu.dcache.blocked_cycles::no_mshrs       522753                       # number of cycles access was blocked
system.cpu.dcache.blocked_cycles::no_targets        25853                       # number of cycles access was blocked
system.cpu.dcache.blocked::no_mshrs             29146                       # number of cycles access was blocked
system.cpu.dcache.blocked::no_targets             332                       # number of cycles access was blocked
system.cpu.dcache.avg_blocked_cycles::no_mshrs    17.935669                       # average number of cycles each access was blocked
system.cpu.dcache.avg_blocked_cycles::no_targets    77.870482                       # average number of cycles each access was blocked
system.cpu.dcache.writebacks::.writebacks        70546                       # number of writebacks
system.cpu.dcache.writebacks::total             70546                       # number of writebacks
system.cpu.dcache.demand_mshr_hits::.switch_cpus.data        65276                       # number of demand (read+write) MSHR hits
system.cpu.dcache.demand_mshr_hits::total        65276                       # number of demand (read+write) MSHR hits
system.cpu.dcache.overall_mshr_hits::.switch_cpus.data        65276                       # number of overall MSHR hits
system.cpu.dcache.overall_mshr_hits::total        65276                       # number of overall MSHR hits
system.cpu.dcache.demand_mshr_misses::.switch_cpus.data        70802                       # number of demand (read+write) MSHR misses
system.cpu.dcache.demand_mshr_misses::total        70802                       # number of demand (read+write) MSHR misses
system.cpu.dcache.overall_mshr_misses::.switch_cpus.data        70802                       # number of overall MSHR misses
system.cpu.dcache.overall_mshr_misses::total        70802                       # number of overall MSHR misses
system.cpu.dcache.demand_mshr_miss_latency::.switch_cpus.data   2952476378                       # number of demand (read+write) MSHR miss cycles
system.cpu.dcache.demand_mshr_miss_latency::total   2952476378                       # number of demand (read+write) MSHR miss cycles
system.cpu.dcache.overall_mshr_miss_latency::.switch_cpus.data   2952476378                       # number of overall MSHR miss cycles
system.cpu.dcache.overall_mshr_miss_latency::total   2952476378                       # number of overall MSHR miss cycles
system.cpu.dcache.demand_mshr_miss_rate::.switch_cpus.data     0.162576                       # mshr miss rate for demand accesses
system.cpu.dcache.demand_mshr_miss_rate::total     0.162573                       # mshr miss rate for demand accesses
system.cpu.dcache.overall_mshr_miss_rate::.switch_cpus.data     0.162576                       # mshr miss rate for overall accesses
system.cpu.dcache.overall_mshr_miss_rate::total     0.162573                       # mshr miss rate for overall accesses
system.cpu.dcache.demand_avg_mshr_miss_latency::.switch_cpus.data 41700.465778                       # average overall mshr miss latency
system.cpu.dcache.demand_avg_mshr_miss_latency::total 41700.465778                       # average overall mshr miss latency
system.cpu.dcache.overall_avg_mshr_miss_latency::.switch_cpus.data 41700.465778                       # average overall mshr miss latency
system.cpu.dcache.overall_avg_mshr_miss_latency::total 41700.465778                       # average overall mshr miss latency
system.cpu.dcache.replacements                  70546                       # number of replacements
system.cpu.dcache.ReadReq_hits::.cpu.data            3                       # number of ReadReq hits
system.cpu.dcache.ReadReq_hits::.switch_cpus.data       271015                       # number of ReadReq hits
system.cpu.dcache.ReadReq_hits::total          271018                       # number of ReadReq hits
system.cpu.dcache.ReadReq_misses::.cpu.data            4                       # number of ReadReq misses
system.cpu.dcache.ReadReq_misses::.switch_cpus.data       131391                       # number of ReadReq misses
system.cpu.dcache.ReadReq_misses::total        131395                       # number of ReadReq misses
system.cpu.dcache.ReadReq_miss_latency::.switch_cpus.data   5141044800                       # number of ReadReq miss cycles
system.cpu.dcache.ReadReq_miss_latency::total   5141044800                       # number of ReadReq miss cycles
system.cpu.dcache.ReadReq_accesses::.cpu.data            7                       # number of ReadReq accesses(hits+misses)
system.cpu.dcache.ReadReq_accesses::.switch_cpus.data       402406                       # number of ReadReq accesses(hits+misses)
system.cpu.dcache.ReadReq_accesses::total       402413                       # number of ReadReq accesses(hits+misses)
system.cpu.dcache.ReadReq_miss_rate::.cpu.data     0.571429                       # miss rate for ReadReq accesses
system.cpu.dcache.ReadReq_miss_rate::.switch_cpus.data     0.326514                       # miss rate for ReadReq accesses
system.cpu.dcache.ReadReq_miss_rate::total     0.326518                       # miss rate for ReadReq accesses
system.cpu.dcache.ReadReq_avg_miss_latency::.switch_cpus.data 39127.830673                       # average ReadReq miss latency
system.cpu.dcache.ReadReq_avg_miss_latency::total 39126.639522                       # average ReadReq miss latency
system.cpu.dcache.ReadReq_mshr_hits::.switch_cpus.data        62030                       # number of ReadReq MSHR hits
system.cpu.dcache.ReadReq_mshr_hits::total        62030                       # number of ReadReq MSHR hits
system.cpu.dcache.ReadReq_mshr_misses::.switch_cpus.data        69361                       # number of ReadReq MSHR misses
system.cpu.dcache.ReadReq_mshr_misses::total        69361                       # number of ReadReq MSHR misses
system.cpu.dcache.ReadReq_mshr_miss_latency::.switch_cpus.data   2909309200                       # number of ReadReq MSHR miss cycles
system.cpu.dcache.ReadReq_mshr_miss_latency::total   2909309200                       # number of ReadReq MSHR miss cycles
system.cpu.dcache.ReadReq_mshr_miss_rate::.switch_cpus.data     0.172366                       # mshr miss rate for ReadReq accesses
system.cpu.dcache.ReadReq_mshr_miss_rate::total     0.172363                       # mshr miss rate for ReadReq accesses
system.cpu.dcache.ReadReq_avg_mshr_miss_latency::.switch_cpus.data 41944.452935                       # average ReadReq mshr miss latency
system.cpu.dcache.ReadReq_avg_mshr_miss_latency::total 41944.452935                       # average ReadReq mshr miss latency
system.cpu.dcache.WriteReq_hits::.switch_cpus.data        28408                       # number of WriteReq hits
system.cpu.dcache.WriteReq_hits::total          28408                       # number of WriteReq hits
system.cpu.dcache.WriteReq_misses::.switch_cpus.data         4687                       # number of WriteReq misses
system.cpu.dcache.WriteReq_misses::total         4687                       # number of WriteReq misses
system.cpu.dcache.WriteReq_miss_latency::.switch_cpus.data    143360598                       # number of WriteReq miss cycles
system.cpu.dcache.WriteReq_miss_latency::total    143360598                       # number of WriteReq miss cycles
system.cpu.dcache.WriteReq_accesses::.switch_cpus.data        33095                       # number of WriteReq accesses(hits+misses)
system.cpu.dcache.WriteReq_accesses::total        33095                       # number of WriteReq accesses(hits+misses)
system.cpu.dcache.WriteReq_miss_rate::.switch_cpus.data     0.141623                       # miss rate for WriteReq accesses
system.cpu.dcache.WriteReq_miss_rate::total     0.141623                       # miss rate for WriteReq accesses
system.cpu.dcache.WriteReq_avg_miss_latency::.switch_cpus.data 30586.856838                       # average WriteReq miss latency
system.cpu.dcache.WriteReq_avg_miss_latency::total 30586.856838                       # average WriteReq miss latency
system.cpu.dcache.WriteReq_mshr_hits::.switch_cpus.data         3246                       # number of WriteReq MSHR hits
system.cpu.dcache.WriteReq_mshr_hits::total         3246                       # number of WriteReq MSHR hits
system.cpu.dcache.WriteReq_mshr_misses::.switch_cpus.data         1441                       # number of WriteReq MSHR misses
system.cpu.dcache.WriteReq_mshr_misses::total         1441                       # number of WriteReq MSHR misses
system.cpu.dcache.WriteReq_mshr_miss_latency::.switch_cpus.data     43167178                       # number of WriteReq MSHR miss cycles
system.cpu.dcache.WriteReq_mshr_miss_latency::total     43167178                       # number of WriteReq MSHR miss cycles
system.cpu.dcache.WriteReq_mshr_miss_rate::.switch_cpus.data     0.043541                       # mshr miss rate for WriteReq accesses
system.cpu.dcache.WriteReq_mshr_miss_rate::total     0.043541                       # mshr miss rate for WriteReq accesses
system.cpu.dcache.WriteReq_avg_mshr_miss_latency::.switch_cpus.data 29956.403886                       # average WriteReq mshr miss latency
system.cpu.dcache.WriteReq_avg_mshr_miss_latency::total 29956.403886                       # average WriteReq mshr miss latency
system.cpu.dcache.power_state.pwrStateResidencyTicks::UNDEFINED 6730696782000                       # Cumulative time (in ticks) in various power states
system.cpu.dcache.tags.tagsinuse           255.215560                       # Cycle average of tags in use
system.cpu.dcache.tags.total_refs              366759                       # Total number of references to valid blocks.
system.cpu.dcache.tags.sampled_refs             70546                       # Sample count of references to valid blocks.
system.cpu.dcache.tags.avg_refs              5.198863                       # Average number of references to valid blocks.
system.cpu.dcache.tags.warmup_cycle      6729854173600                       # Cycle when the warmup percentage was hit.
system.cpu.dcache.tags.occ_blocks::.cpu.data     0.054654                       # Average occupied blocks per requestor
system.cpu.dcache.tags.occ_blocks::.switch_cpus.data   255.160906                       # Average occupied blocks per requestor
system.cpu.dcache.tags.occ_percent::.cpu.data     0.000213                       # Average percentage of cache occupancy
system.cpu.dcache.tags.occ_percent::.switch_cpus.data     0.996722                       # Average percentage of cache occupancy
system.cpu.dcache.tags.occ_percent::total     0.996936                       # Average percentage of cache occupancy
system.cpu.dcache.tags.occ_task_id_blocks::1024          256                       # Occupied blocks per task id
system.cpu.dcache.tags.age_task_id_blocks_1024::0          253                       # Occupied blocks per task id
system.cpu.dcache.tags.age_task_id_blocks_1024::1            3                       # Occupied blocks per task id
system.cpu.dcache.tags.occ_task_id_percent::1024            1                       # Percentage of cache occupancy per task id
system.cpu.dcache.tags.tag_accesses           3554866                       # Number of tag accesses
system.cpu.dcache.tags.data_accesses          3554866                       # Number of data accesses
system.cpu.dcache.tags.power_state.pwrStateResidencyTicks::UNDEFINED 6730696782000                       # Cumulative time (in ticks) in various power states
system.cpu.dtb.instHits                             0                       # ITB inst hits
system.cpu.dtb.instMisses                           0                       # ITB inst misses
system.cpu.dtb.readHits                             0                       # DTB read hits
system.cpu.dtb.readMisses                           0                       # DTB read misses
system.cpu.dtb.writeHits                            0                       # DTB write hits
system.cpu.dtb.writeMisses                          0                       # DTB write misses
system.cpu.dtb.inserts                              0                       # Number of times an entry is inserted into the TLB
system.cpu.dtb.flushTlb                             2                       # Number of times complete TLB was flushed
system.cpu.dtb.flushTlbMva                          0                       # Number of times TLB was flushed by MVA
system.cpu.dtb.flushTlbMvaAsid                      0                       # Number of times TLB was flushed by MVA & ASID
system.cpu.dtb.flushTlbAsid                         0                       # Number of times TLB was flushed by ASID
system.cpu.dtb.flushedEntries                       0                       # Number of entries that have been flushed from TLB
system.cpu.dtb.alignFaults                          0                       # Number of TLB faults due to alignment restrictions
system.cpu.dtb.prefetchFaults                       0                       # Number of TLB faults due to prefetch
system.cpu.dtb.domainFaults                         0                       # Number of TLB faults due to domain restrictions
system.cpu.dtb.permsFaults                          0                       # Number of TLB faults due to permissions restrictions
system.cpu.dtb.readAccesses                         0                       # DTB read accesses
system.cpu.dtb.writeAccesses                        0                       # DTB write accesses
system.cpu.dtb.instAccesses                         0                       # ITB inst accesses
system.cpu.dtb.hits                                 0                       # Total TLB (inst and data) hits
system.cpu.dtb.misses                               0                       # Total TLB (inst and data) misses
system.cpu.dtb.accesses                             0                       # Total TLB (inst and data) accesses
system.cpu.dtb.stage2_mmu.stage2_tlb.instHits            0                       # ITB inst hits
system.cpu.dtb.stage2_mmu.stage2_tlb.instMisses            0                       # ITB inst misses
system.cpu.dtb.stage2_mmu.stage2_tlb.readHits            0                       # DTB read hits
system.cpu.dtb.stage2_mmu.stage2_tlb.readMisses            0                       # DTB read misses
system.cpu.dtb.stage2_mmu.stage2_tlb.writeHits            0                       # DTB write hits
system.cpu.dtb.stage2_mmu.stage2_tlb.writeMisses            0                       # DTB write misses
system.cpu.dtb.stage2_mmu.stage2_tlb.inserts            0                       # Number of times an entry is inserted into the TLB
system.cpu.dtb.stage2_mmu.stage2_tlb.flushTlb            0                       # Number of times complete TLB was flushed
system.cpu.dtb.stage2_mmu.stage2_tlb.flushTlbMva            0                       # Number of times TLB was flushed by MVA
system.cpu.dtb.stage2_mmu.stage2_tlb.flushTlbMvaAsid            0                       # Number of times TLB was flushed by MVA & ASID
system.cpu.dtb.stage2_mmu.stage2_tlb.flushTlbAsid            0                       # Number of times TLB was flushed by ASID
system.cpu.dtb.stage2_mmu.stage2_tlb.flushedEntries            0                       # Number of entries that have been flushed from TLB
system.cpu.dtb.stage2_mmu.stage2_tlb.alignFaults            0                       # Number of TLB faults due to alignment restrictions
system.cpu.dtb.stage2_mmu.stage2_tlb.prefetchFaults            0                       # Number of TLB faults due to prefetch
system.cpu.dtb.stage2_mmu.stage2_tlb.domainFaults            0                       # Number of TLB faults due to domain restrictions
system.cpu.dtb.stage2_mmu.stage2_tlb.permsFaults            0                       # Number of TLB faults due to permissions restrictions
system.cpu.dtb.stage2_mmu.stage2_tlb.readAccesses            0                       # DTB read accesses
system.cpu.dtb.stage2_mmu.stage2_tlb.writeAccesses            0                       # DTB write accesses
system.cpu.dtb.stage2_mmu.stage2_tlb.instAccesses            0                       # ITB inst accesses
system.cpu.dtb.stage2_mmu.stage2_tlb.hits            0                       # Total TLB (inst and data) hits
system.cpu.dtb.stage2_mmu.stage2_tlb.misses            0                       # Total TLB (inst and data) misses
system.cpu.dtb.stage2_mmu.stage2_tlb.accesses            0                       # Total TLB (inst and data) accesses
system.cpu.dtb.stage2_mmu.stage2_tlb.walker.walks            0                       # Table walker walks requested
system.cpu.dtb.stage2_mmu.stage2_tlb.walker.requestOrigin_Requested::Data            0                       # Table walker requests started/completed, data/inst
system.cpu.dtb.stage2_mmu.stage2_tlb.walker.requestOrigin_Requested::Inst            0                       # Table walker requests started/completed, data/inst
system.cpu.dtb.stage2_mmu.stage2_tlb.walker.requestOrigin_Requested::total            0                       # Table walker requests started/completed, data/inst
system.cpu.dtb.stage2_mmu.stage2_tlb.walker.requestOrigin_Completed::Data            0                       # Table walker requests started/completed, data/inst
system.cpu.dtb.stage2_mmu.stage2_tlb.walker.requestOrigin_Completed::Inst            0                       # Table walker requests started/completed, data/inst
system.cpu.dtb.stage2_mmu.stage2_tlb.walker.requestOrigin_Completed::total            0                       # Table walker requests started/completed, data/inst
system.cpu.dtb.stage2_mmu.stage2_tlb.walker.requestOrigin::total            0                       # Table walker requests started/completed, data/inst
system.cpu.dtb.stage2_mmu.stage2_tlb.walker.power_state.pwrStateResidencyTicks::UNDEFINED 6730696782000                       # Cumulative time (in ticks) in various power states
system.cpu.dtb.walker.walks                         0                       # Table walker walks requested
system.cpu.dtb.walker.requestOrigin_Requested::Data            0                       # Table walker requests started/completed, data/inst
system.cpu.dtb.walker.requestOrigin_Requested::Inst            0                       # Table walker requests started/completed, data/inst
system.cpu.dtb.walker.requestOrigin_Requested::total            0                       # Table walker requests started/completed, data/inst
system.cpu.dtb.walker.requestOrigin_Completed::Data            0                       # Table walker requests started/completed, data/inst
system.cpu.dtb.walker.requestOrigin_Completed::Inst            0                       # Table walker requests started/completed, data/inst
system.cpu.dtb.walker.requestOrigin_Completed::total            0                       # Table walker requests started/completed, data/inst
system.cpu.dtb.walker.requestOrigin::total            0                       # Table walker requests started/completed, data/inst
system.cpu.dtb.walker.power_state.pwrStateResidencyTicks::UNDEFINED 6730696782000                       # Cumulative time (in ticks) in various power states
system.cpu.dtb_walker_cache.blocked_cycles::no_mshrs            0                       # number of cycles access was blocked
system.cpu.dtb_walker_cache.blocked_cycles::no_targets            0                       # number of cycles access was blocked
system.cpu.dtb_walker_cache.blocked::no_mshrs            0                       # number of cycles access was blocked
system.cpu.dtb_walker_cache.blocked::no_targets            0                       # number of cycles access was blocked
system.cpu.dtb_walker_cache.avg_blocked_cycles::no_mshrs          nan                       # average number of cycles each access was blocked
system.cpu.dtb_walker_cache.avg_blocked_cycles::no_targets          nan                       # average number of cycles each access was blocked
system.cpu.dtb_walker_cache.replacements            0                       # number of replacements
system.cpu.dtb_walker_cache.power_state.pwrStateResidencyTicks::UNDEFINED 6730696782000                       # Cumulative time (in ticks) in various power states
system.cpu.dtb_walker_cache.tags.tagsinuse            0                       # Cycle average of tags in use
system.cpu.dtb_walker_cache.tags.total_refs            0                       # Total number of references to valid blocks.
system.cpu.dtb_walker_cache.tags.sampled_refs            0                       # Sample count of references to valid blocks.
system.cpu.dtb_walker_cache.tags.avg_refs          nan                       # Average number of references to valid blocks.
system.cpu.dtb_walker_cache.tags.warmup_cycle            0                       # Cycle when the warmup percentage was hit.
system.cpu.dtb_walker_cache.tags.tag_accesses            0                       # Number of tag accesses
system.cpu.dtb_walker_cache.tags.data_accesses            0                       # Number of data accesses
system.cpu.dtb_walker_cache.tags.power_state.pwrStateResidencyTicks::UNDEFINED 6730696782000                       # Cumulative time (in ticks) in various power states
system.cpu.icache.demand_hits::.cpu.inst           22                       # number of demand (read+write) hits
system.cpu.icache.demand_hits::.switch_cpus.inst       332697                       # number of demand (read+write) hits
system.cpu.icache.demand_hits::total           332719                       # number of demand (read+write) hits
system.cpu.icache.overall_hits::.cpu.inst           22                       # number of overall hits
system.cpu.icache.overall_hits::.switch_cpus.inst       332697                       # number of overall hits
system.cpu.icache.overall_hits::total          332719                       # number of overall hits
system.cpu.icache.demand_misses::.cpu.inst            2                       # number of demand (read+write) misses
system.cpu.icache.demand_misses::.switch_cpus.inst           58                       # number of demand (read+write) misses
system.cpu.icache.demand_misses::total             60                       # number of demand (read+write) misses
system.cpu.icache.overall_misses::.cpu.inst            2                       # number of overall misses
system.cpu.icache.overall_misses::.switch_cpus.inst           58                       # number of overall misses
system.cpu.icache.overall_misses::total            60                       # number of overall misses
system.cpu.icache.demand_miss_latency::.switch_cpus.inst      3813600                       # number of demand (read+write) miss cycles
system.cpu.icache.demand_miss_latency::total      3813600                       # number of demand (read+write) miss cycles
system.cpu.icache.overall_miss_latency::.switch_cpus.inst      3813600                       # number of overall miss cycles
system.cpu.icache.overall_miss_latency::total      3813600                       # number of overall miss cycles
system.cpu.icache.demand_accesses::.cpu.inst           24                       # number of demand (read+write) accesses
system.cpu.icache.demand_accesses::.switch_cpus.inst       332755                       # number of demand (read+write) accesses
system.cpu.icache.demand_accesses::total       332779                       # number of demand (read+write) accesses
system.cpu.icache.overall_accesses::.cpu.inst           24                       # number of overall (read+write) accesses
system.cpu.icache.overall_accesses::.switch_cpus.inst       332755                       # number of overall (read+write) accesses
system.cpu.icache.overall_accesses::total       332779                       # number of overall (read+write) accesses
system.cpu.icache.demand_miss_rate::.cpu.inst     0.083333                       # miss rate for demand accesses
system.cpu.icache.demand_miss_rate::.switch_cpus.inst     0.000174                       # miss rate for demand accesses
system.cpu.icache.demand_miss_rate::total     0.000180                       # miss rate for demand accesses
system.cpu.icache.overall_miss_rate::.cpu.inst     0.083333                       # miss rate for overall accesses
system.cpu.icache.overall_miss_rate::.switch_cpus.inst     0.000174                       # miss rate for overall accesses
system.cpu.icache.overall_miss_rate::total     0.000180                       # miss rate for overall accesses
system.cpu.icache.demand_avg_miss_latency::.switch_cpus.inst 65751.724138                       # average overall miss latency
system.cpu.icache.demand_avg_miss_latency::total        63560                       # average overall miss latency
system.cpu.icache.overall_avg_miss_latency::.switch_cpus.inst 65751.724138                       # average overall miss latency
system.cpu.icache.overall_avg_miss_latency::total        63560                       # average overall miss latency
system.cpu.icache.blocked_cycles::no_mshrs          890                       # number of cycles access was blocked
system.cpu.icache.blocked_cycles::no_targets            0                       # number of cycles access was blocked
system.cpu.icache.blocked::no_mshrs                 7                       # number of cycles access was blocked
system.cpu.icache.blocked::no_targets               0                       # number of cycles access was blocked
system.cpu.icache.avg_blocked_cycles::no_mshrs   127.142857                       # average number of cycles each access was blocked
system.cpu.icache.avg_blocked_cycles::no_targets          nan                       # average number of cycles each access was blocked
system.cpu.icache.demand_mshr_hits::.switch_cpus.inst           21                       # number of demand (read+write) MSHR hits
system.cpu.icache.demand_mshr_hits::total           21                       # number of demand (read+write) MSHR hits
system.cpu.icache.overall_mshr_hits::.switch_cpus.inst           21                       # number of overall MSHR hits
system.cpu.icache.overall_mshr_hits::total           21                       # number of overall MSHR hits
system.cpu.icache.demand_mshr_misses::.switch_cpus.inst           37                       # number of demand (read+write) MSHR misses
system.cpu.icache.demand_mshr_misses::total           37                       # number of demand (read+write) MSHR misses
system.cpu.icache.overall_mshr_misses::.switch_cpus.inst           37                       # number of overall MSHR misses
system.cpu.icache.overall_mshr_misses::total           37                       # number of overall MSHR misses
system.cpu.icache.demand_mshr_miss_latency::.switch_cpus.inst      2832800                       # number of demand (read+write) MSHR miss cycles
system.cpu.icache.demand_mshr_miss_latency::total      2832800                       # number of demand (read+write) MSHR miss cycles
system.cpu.icache.overall_mshr_miss_latency::.switch_cpus.inst      2832800                       # number of overall MSHR miss cycles
system.cpu.icache.overall_mshr_miss_latency::total      2832800                       # number of overall MSHR miss cycles
system.cpu.icache.demand_mshr_miss_rate::.switch_cpus.inst     0.000111                       # mshr miss rate for demand accesses
system.cpu.icache.demand_mshr_miss_rate::total     0.000111                       # mshr miss rate for demand accesses
system.cpu.icache.overall_mshr_miss_rate::.switch_cpus.inst     0.000111                       # mshr miss rate for overall accesses
system.cpu.icache.overall_mshr_miss_rate::total     0.000111                       # mshr miss rate for overall accesses
system.cpu.icache.demand_avg_mshr_miss_latency::.switch_cpus.inst 76562.162162                       # average overall mshr miss latency
system.cpu.icache.demand_avg_mshr_miss_latency::total 76562.162162                       # average overall mshr miss latency
system.cpu.icache.overall_avg_mshr_miss_latency::.switch_cpus.inst 76562.162162                       # average overall mshr miss latency
system.cpu.icache.overall_avg_mshr_miss_latency::total 76562.162162                       # average overall mshr miss latency
system.cpu.icache.replacements                      0                       # number of replacements
system.cpu.icache.ReadReq_hits::.cpu.inst           22                       # number of ReadReq hits
system.cpu.icache.ReadReq_hits::.switch_cpus.inst       332697                       # number of ReadReq hits
system.cpu.icache.ReadReq_hits::total          332719                       # number of ReadReq hits
system.cpu.icache.ReadReq_misses::.cpu.inst            2                       # number of ReadReq misses
system.cpu.icache.ReadReq_misses::.switch_cpus.inst           58                       # number of ReadReq misses
system.cpu.icache.ReadReq_misses::total            60                       # number of ReadReq misses
system.cpu.icache.ReadReq_miss_latency::.switch_cpus.inst      3813600                       # number of ReadReq miss cycles
system.cpu.icache.ReadReq_miss_latency::total      3813600                       # number of ReadReq miss cycles
system.cpu.icache.ReadReq_accesses::.cpu.inst           24                       # number of ReadReq accesses(hits+misses)
system.cpu.icache.ReadReq_accesses::.switch_cpus.inst       332755                       # number of ReadReq accesses(hits+misses)
system.cpu.icache.ReadReq_accesses::total       332779                       # number of ReadReq accesses(hits+misses)
system.cpu.icache.ReadReq_miss_rate::.cpu.inst     0.083333                       # miss rate for ReadReq accesses
system.cpu.icache.ReadReq_miss_rate::.switch_cpus.inst     0.000174                       # miss rate for ReadReq accesses
system.cpu.icache.ReadReq_miss_rate::total     0.000180                       # miss rate for ReadReq accesses
system.cpu.icache.ReadReq_avg_miss_latency::.switch_cpus.inst 65751.724138                       # average ReadReq miss latency
system.cpu.icache.ReadReq_avg_miss_latency::total        63560                       # average ReadReq miss latency
system.cpu.icache.ReadReq_mshr_hits::.switch_cpus.inst           21                       # number of ReadReq MSHR hits
system.cpu.icache.ReadReq_mshr_hits::total           21                       # number of ReadReq MSHR hits
system.cpu.icache.ReadReq_mshr_misses::.switch_cpus.inst           37                       # number of ReadReq MSHR misses
system.cpu.icache.ReadReq_mshr_misses::total           37                       # number of ReadReq MSHR misses
system.cpu.icache.ReadReq_mshr_miss_latency::.switch_cpus.inst      2832800                       # number of ReadReq MSHR miss cycles
system.cpu.icache.ReadReq_mshr_miss_latency::total      2832800                       # number of ReadReq MSHR miss cycles
system.cpu.icache.ReadReq_mshr_miss_rate::.switch_cpus.inst     0.000111                       # mshr miss rate for ReadReq accesses
system.cpu.icache.ReadReq_mshr_miss_rate::total     0.000111                       # mshr miss rate for ReadReq accesses
system.cpu.icache.ReadReq_avg_mshr_miss_latency::.switch_cpus.inst 76562.162162                       # average ReadReq mshr miss latency
system.cpu.icache.ReadReq_avg_mshr_miss_latency::total 76562.162162                       # average ReadReq mshr miss latency
system.cpu.icache.power_state.pwrStateResidencyTicks::UNDEFINED 6730696782000                       # Cumulative time (in ticks) in various power states
system.cpu.icache.tags.tagsinuse            38.113398                       # Cycle average of tags in use
system.cpu.icache.tags.total_refs                   0                       # Total number of references to valid blocks.
system.cpu.icache.tags.sampled_refs                 0                       # Sample count of references to valid blocks.
system.cpu.icache.tags.avg_refs                   nan                       # Average number of references to valid blocks.
system.cpu.icache.tags.warmup_cycle      6729854172400                       # Cycle when the warmup percentage was hit.
system.cpu.icache.tags.occ_blocks::.cpu.inst     1.999999                       # Average occupied blocks per requestor
system.cpu.icache.tags.occ_blocks::.switch_cpus.inst    36.113399                       # Average occupied blocks per requestor
system.cpu.icache.tags.occ_percent::.cpu.inst     0.003906                       # Average percentage of cache occupancy
system.cpu.icache.tags.occ_percent::.switch_cpus.inst     0.070534                       # Average percentage of cache occupancy
system.cpu.icache.tags.occ_percent::total     0.074440                       # Average percentage of cache occupancy
system.cpu.icache.tags.occ_task_id_blocks::1024           39                       # Occupied blocks per task id
system.cpu.icache.tags.age_task_id_blocks_1024::2           39                       # Occupied blocks per task id
system.cpu.icache.tags.occ_task_id_percent::1024     0.076172                       # Percentage of cache occupancy per task id
system.cpu.icache.tags.tag_accesses           2662271                       # Number of tag accesses
system.cpu.icache.tags.data_accesses          2662271                       # Number of data accesses
system.cpu.icache.tags.power_state.pwrStateResidencyTicks::UNDEFINED 6730696782000                       # Cumulative time (in ticks) in various power states
system.cpu.itb.instHits                             0                       # ITB inst hits
system.cpu.itb.instMisses                           0                       # ITB inst misses
system.cpu.itb.readHits                             0                       # DTB read hits
system.cpu.itb.readMisses                           0                       # DTB read misses
system.cpu.itb.writeHits                            0                       # DTB write hits
system.cpu.itb.writeMisses                          0                       # DTB write misses
system.cpu.itb.inserts                              0                       # Number of times an entry is inserted into the TLB
system.cpu.itb.flushTlb                             2                       # Number of times complete TLB was flushed
system.cpu.itb.flushTlbMva                          0                       # Number of times TLB was flushed by MVA
system.cpu.itb.flushTlbMvaAsid                      0                       # Number of times TLB was flushed by MVA & ASID
system.cpu.itb.flushTlbAsid                         0                       # Number of times TLB was flushed by ASID
system.cpu.itb.flushedEntries                       0                       # Number of entries that have been flushed from TLB
system.cpu.itb.alignFaults                          0                       # Number of TLB faults due to alignment restrictions
system.cpu.itb.prefetchFaults                       0                       # Number of TLB faults due to prefetch
system.cpu.itb.domainFaults                         0                       # Number of TLB faults due to domain restrictions
system.cpu.itb.permsFaults                          0                       # Number of TLB faults due to permissions restrictions
system.cpu.itb.readAccesses                         0                       # DTB read accesses
system.cpu.itb.writeAccesses                        0                       # DTB write accesses
system.cpu.itb.instAccesses                         0                       # ITB inst accesses
system.cpu.itb.hits                                 0                       # Total TLB (inst and data) hits
system.cpu.itb.misses                               0                       # Total TLB (inst and data) misses
system.cpu.itb.accesses                             0                       # Total TLB (inst and data) accesses
system.cpu.itb.stage2_mmu.stage2_tlb.instHits            0                       # ITB inst hits
system.cpu.itb.stage2_mmu.stage2_tlb.instMisses            0                       # ITB inst misses
system.cpu.itb.stage2_mmu.stage2_tlb.readHits            0                       # DTB read hits
system.cpu.itb.stage2_mmu.stage2_tlb.readMisses            0                       # DTB read misses
system.cpu.itb.stage2_mmu.stage2_tlb.writeHits            0                       # DTB write hits
system.cpu.itb.stage2_mmu.stage2_tlb.writeMisses            0                       # DTB write misses
system.cpu.itb.stage2_mmu.stage2_tlb.inserts            0                       # Number of times an entry is inserted into the TLB
system.cpu.itb.stage2_mmu.stage2_tlb.flushTlb            0                       # Number of times complete TLB was flushed
system.cpu.itb.stage2_mmu.stage2_tlb.flushTlbMva            0                       # Number of times TLB was flushed by MVA
system.cpu.itb.stage2_mmu.stage2_tlb.flushTlbMvaAsid            0                       # Number of times TLB was flushed by MVA & ASID
system.cpu.itb.stage2_mmu.stage2_tlb.flushTlbAsid            0                       # Number of times TLB was flushed by ASID
system.cpu.itb.stage2_mmu.stage2_tlb.flushedEntries            0                       # Number of entries that have been flushed from TLB
system.cpu.itb.stage2_mmu.stage2_tlb.alignFaults            0                       # Number of TLB faults due to alignment restrictions
system.cpu.itb.stage2_mmu.stage2_tlb.prefetchFaults            0                       # Number of TLB faults due to prefetch
system.cpu.itb.stage2_mmu.stage2_tlb.domainFaults            0                       # Number of TLB faults due to domain restrictions
system.cpu.itb.stage2_mmu.stage2_tlb.permsFaults            0                       # Number of TLB faults due to permissions restrictions
system.cpu.itb.stage2_mmu.stage2_tlb.readAccesses            0                       # DTB read accesses
system.cpu.itb.stage2_mmu.stage2_tlb.writeAccesses            0                       # DTB write accesses
system.cpu.itb.stage2_mmu.stage2_tlb.instAccesses            0                       # ITB inst accesses
system.cpu.itb.stage2_mmu.stage2_tlb.hits            0                       # Total TLB (inst and data) hits
system.cpu.itb.stage2_mmu.stage2_tlb.misses            0                       # Total TLB (inst and data) misses
system.cpu.itb.stage2_mmu.stage2_tlb.accesses            0                       # Total TLB (inst and data) accesses
system.cpu.itb.stage2_mmu.stage2_tlb.walker.walks            0                       # Table walker walks requested
system.cpu.itb.stage2_mmu.stage2_tlb.walker.requestOrigin_Requested::Data            0                       # Table walker requests started/completed, data/inst
system.cpu.itb.stage2_mmu.stage2_tlb.walker.requestOrigin_Requested::Inst            0                       # Table walker requests started/completed, data/inst
system.cpu.itb.stage2_mmu.stage2_tlb.walker.requestOrigin_Requested::total            0                       # Table walker requests started/completed, data/inst
system.cpu.itb.stage2_mmu.stage2_tlb.walker.requestOrigin_Completed::Data            0                       # Table walker requests started/completed, data/inst
system.cpu.itb.stage2_mmu.stage2_tlb.walker.requestOrigin_Completed::Inst            0                       # Table walker requests started/completed, data/inst
system.cpu.itb.stage2_mmu.stage2_tlb.walker.requestOrigin_Completed::total            0                       # Table walker requests started/completed, data/inst
system.cpu.itb.stage2_mmu.stage2_tlb.walker.requestOrigin::total            0                       # Table walker requests started/completed, data/inst
system.cpu.itb.stage2_mmu.stage2_tlb.walker.power_state.pwrStateResidencyTicks::UNDEFINED 6730696782000                       # Cumulative time (in ticks) in various power states
system.cpu.itb.walker.walks                         0                       # Table walker walks requested
system.cpu.itb.walker.requestOrigin_Requested::Data            0                       # Table walker requests started/completed, data/inst
system.cpu.itb.walker.requestOrigin_Requested::Inst            0                       # Table walker requests started/completed, data/inst
system.cpu.itb.walker.requestOrigin_Requested::total            0                       # Table walker requests started/completed, data/inst
system.cpu.itb.walker.requestOrigin_Completed::Data            0                       # Table walker requests started/completed, data/inst
system.cpu.itb.walker.requestOrigin_Completed::Inst            0                       # Table walker requests started/completed, data/inst
system.cpu.itb.walker.requestOrigin_Completed::total            0                       # Table walker requests started/completed, data/inst
system.cpu.itb.walker.requestOrigin::total            0                       # Table walker requests started/completed, data/inst
system.cpu.itb.walker.power_state.pwrStateResidencyTicks::UNDEFINED 6730696782000                       # Cumulative time (in ticks) in various power states
system.cpu.itb_walker_cache.blocked_cycles::no_mshrs            0                       # number of cycles access was blocked
[...]
system.switch_cpus.fetch.icacheStallCycles        66432                       # Number of cycles fetch is stalled on an Icache miss
system.switch_cpus.fetch.insts               18922472                       # Number of instructions fetch has processed
system.switch_cpus.fetch.branches             4680256                       # Number of branches that fetch encountered
system.switch_cpus.fetch.predictedBranches      2030610                       # Number of branches that fetch has predicted taken
system.switch_cpus.fetch.cycles              19978275                       # Number of cycles fetch has run and was not squashing or blocked
system.switch_cpus.fetch.squashCycles          184610                       # Number of cycles fetch has spent squashing
system.switch_cpus.fetch.cacheLines           3021102                       # Number of cache lines fetched
system.switch_cpus.fetch.icacheSquashes             1                       # Number of outstanding Icache misses that were squashed
system.switch_cpus.fetch.nisnDist::samples     20137012                       # Number of instructions fetched each cycle (Total)
system.switch_cpus.fetch.nisnDist::mean      0.972195                       # Number of instructions fetched each cycle (Total)
system.switch_cpus.fetch.nisnDist::stdev     2.172746                       # Number of instructions fetched each cycle (Total)
system.switch_cpus.fetch.nisnDist::underflows            0      0.00%      0.00% # Number of instructions fetched each cycle (Total)
system.switch_cpus.fetch.nisnDist::0         15734559     78.14%     78.14% # Number of instructions fetched each cycle (Total)
system.switch_cpus.fetch.nisnDist::1           482379      2.40%     80.53% # Number of instructions fetched each cycle (Total)
system.switch_cpus.fetch.nisnDist::2           598262      2.97%     83.50% # Number of instructions fetched each cycle (Total)
system.switch_cpus.fetch.nisnDist::3           940330      4.67%     88.17% # Number of instructions fetched each cycle (Total)
system.switch_cpus.fetch.nisnDist::4           771584      3.83%     92.01% # Number of instructions fetched each cycle (Total)
system.switch_cpus.fetch.nisnDist::5            82338      0.41%     92.41% # Number of instructions fetched each cycle (Total)
system.switch_cpus.fetch.nisnDist::6           104731      0.52%     92.93% # Number of instructions fetched each cycle (Total)
system.switch_cpus.fetch.nisnDist::7           431831      2.14%     95.08% # Number of instructions fetched each cycle (Total)
system.switch_cpus.fetch.nisnDist::8           990998      4.92%    100.00% # Number of instructions fetched each cycle (Total)
system.switch_cpus.fetch.nisnDist::overflows            0      0.00%    100.00% # Number of instructions fetched each cycle (Total)
system.switch_cpus.fetch.nisnDist::min_value            0                       # Number of instructions fetched each cycle (Total)
system.switch_cpus.fetch.nisnDist::max_value            8                       # Number of instructions fetched each cycle (Total)
system.switch_cpus.fetch.nisnDist::total     20137012                       # Number of instructions fetched each cycle (Total)
system.switch_cpus.fetch.branchRate          0.232421                       # Number of branch fetches per cycle
system.switch_cpus.fetch.rate                0.939686                       # Number of inst fetches per cycle
system.switch_cpus.itb.instHits                     0                       # ITB inst hits
system.switch_cpus.itb.instMisses                   0                       # ITB inst misses
system.switch_cpus.itb.readHits                     0                       # DTB read hits
system.switch_cpus.itb.readMisses                   0                       # DTB read misses
system.switch_cpus.itb.writeHits                    0                       # DTB write hits
system.switch_cpus.itb.writeMisses                  0                       # DTB write misses
system.switch_cpus.itb.inserts                      0                       # Number of times an entry is inserted into the TLB
system.switch_cpus.itb.flushTlb                     0                       # Number of times complete TLB was flushed
system.switch_cpus.itb.flushTlbMva                  0                       # Number of times TLB was flushed by MVA
system.switch_cpus.itb.flushTlbMvaAsid              0                       # Number of times TLB was flushed by MVA & ASID
system.switch_cpus.itb.flushTlbAsid                 0                       # Number of times TLB was flushed by ASID
system.switch_cpus.itb.flushedEntries               0                       # Number of entries that have been flushed from TLB
system.switch_cpus.itb.alignFaults                  0                       # Number of TLB faults due to alignment restrictions
system.switch_cpus.itb.prefetchFaults               0                       # Number of TLB faults due to prefetch
system.switch_cpus.itb.domainFaults                 0                       # Number of TLB faults due to domain restrictions
system.switch_cpus.itb.permsFaults                  0                       # Number of TLB faults due to permissions restrictions
system.switch_cpus.itb.readAccesses                 0                       # DTB read accesses
system.switch_cpus.itb.writeAccesses                0                       # DTB write accesses
system.switch_cpus.itb.instAccesses                 0                       # ITB inst accesses
system.switch_cpus.itb.hits                         0                       # Total TLB (inst and data) hits
system.switch_cpus.itb.misses                       0                       # Total TLB (inst and data) misses
system.switch_cpus.itb.accesses                     0                       # Total TLB (inst and data) accesses
system.switch_cpus.itb.stage2_mmu.stage2_tlb.instHits            0                       # ITB inst hits
system.switch_cpus.itb.stage2_mmu.stage2_tlb.instMisses            0                       # ITB inst misses
system.switch_cpus.itb.stage2_mmu.stage2_tlb.readHits            0                       # DTB read hits
system.switch_cpus.itb.stage2_mmu.stage2_tlb.readMisses            0                       # DTB read misses
system.switch_cpus.itb.stage2_mmu.stage2_tlb.writeHits            0                       # DTB write hits
system.switch_cpus.itb.stage2_mmu.stage2_tlb.writeMisses            0                       # DTB write misses
system.switch_cpus.itb.stage2_mmu.stage2_tlb.inserts            0                       # Number of times an entry is inserted into the TLB
system.switch_cpus.itb.stage2_mmu.stage2_tlb.flushTlb            0                       # Number of times complete TLB was flushed
system.switch_cpus.itb.stage2_mmu.stage2_tlb.flushTlbMva            0                       # Number of times TLB was flushed by MVA
system.switch_cpus.itb.stage2_mmu.stage2_tlb.flushTlbMvaAsid            0                       # Number of times TLB was flushed by MVA & ASID
system.switch_cpus.itb.stage2_mmu.stage2_tlb.flushTlbAsid            0                       # Number of times TLB was flushed by ASID
system.switch_cpus.itb.stage2_mmu.stage2_tlb.flushedEntries            0                       # Number of entries that have been flushed from TLB
system.switch_cpus.itb.stage2_mmu.stage2_tlb.alignFaults            0                       # Number of TLB faults due to alignment restrictions
system.switch_cpus.itb.stage2_mmu.stage2_tlb.prefetchFaults            0                       # Number of TLB faults due to prefetch
system.switch_cpus.itb.stage2_mmu.stage2_tlb.domainFaults            0                       # Number of TLB faults due to domain restrictions
system.switch_cpus.itb.stage2_mmu.stage2_tlb.permsFaults            0                       # Number of TLB faults due to permissions restrictions
system.switch_cpus.itb.stage2_mmu.stage2_tlb.readAccesses            0                       # DTB read accesses
system.switch_cpus.itb.stage2_mmu.stage2_tlb.writeAccesses            0                       # DTB write accesses
system.switch_cpus.itb.stage2_mmu.stage2_tlb.instAccesses            0                       # ITB inst accesses
system.switch_cpus.itb.stage2_mmu.stage2_tlb.hits            0                       # Total TLB (inst and data) hits
system.switch_cpus.itb.stage2_mmu.stage2_tlb.misses            0                       # Total TLB (inst and data) misses
system.switch_cpus.itb.stage2_mmu.stage2_tlb.accesses            0                       # Total TLB (inst and data) accesses
system.switch_cpus.itb.stage2_mmu.stage2_tlb.walker.walks            0                       # Table walker walks requested
system.switch_cpus.itb.stage2_mmu.stage2_tlb.walker.requestOrigin_Requested::Data            0                       # Table walker requests started/completed, data/inst
system.switch_cpus.itb.stage2_mmu.stage2_tlb.walker.requestOrigin_Requested::Inst            0                       # Table walker requests started/completed, data/inst
system.switch_cpus.itb.stage2_mmu.stage2_tlb.walker.requestOrigin_Requested::total            0                       # Table walker requests started/completed, data/inst
system.switch_cpus.itb.stage2_mmu.stage2_tlb.walker.requestOrigin_Completed::Data            0                       # Table walker requests started/completed, data/inst
system.switch_cpus.itb.stage2_mmu.stage2_tlb.walker.requestOrigin_Completed::Inst            0                       # Table walker requests started/completed, data/inst
system.switch_cpus.itb.stage2_mmu.stage2_tlb.walker.requestOrigin_Completed::total            0                       # Table walker requests started/completed, data/inst
system.switch_cpus.itb.stage2_mmu.stage2_tlb.walker.requestOrigin::total            0                       # Table walker requests started/completed, data/inst
system.switch_cpus.itb.stage2_mmu.stage2_tlb.walker.power_state.pwrStateResidencyTicks::UNDEFINED   8054804800                       # Cumulative time (in ticks) in various power states
system.switch_cpus.itb.walker.walks                 0                       # Table walker walks requested
system.switch_cpus.itb.walker.requestOrigin_Requested::Data            0                       # Table walker requests started/completed, data/inst
system.switch_cpus.itb.walker.requestOrigin_Requested::Inst            0                       # Table walker requests started/completed, data/inst
system.switch_cpus.itb.walker.requestOrigin_Requested::total            0                       # Table walker requests started/completed, data/inst
system.switch_cpus.itb.walker.requestOrigin_Completed::Data            0                       # Table walker requests started/completed, data/inst
system.switch_cpus.itb.walker.requestOrigin_Completed::Inst            0                       # Table walker requests started/completed, data/inst
system.switch_cpus.itb.walker.requestOrigin_Completed::total            0                       # Table walker requests started/completed, data/inst
system.switch_cpus.itb.walker.requestOrigin::total            0                       # Table walker requests started/completed, data/inst
system.switch_cpus.itb.walker.power_state.pwrStateResidencyTicks::UNDEFINED   8054804800                       # Cumulative time (in ticks) in various power states
system.switch_cpus.lsq0.forwLoads              120812                       # Number of loads that had data forwarded from stores
system.switch_cpus.lsq0.squashedLoads         1749822                       # Number of loads squashed
system.switch_cpus.lsq0.ignoredResponses           26                       # Number of memory responses ignored because the instruction is squashed
system.switch_cpus.lsq0.memOrderViolation          130                       # Number of memory ordering violations
system.switch_cpus.lsq0.squashedStores         271875                       # Number of stores squashed
system.switch_cpus.lsq0.rescheduledLoads          911                       # Number of loads that were rescheduled
system.switch_cpus.lsq0.blockedByCache         225503                       # Number of times an access to memory failed due to the cache being blocked
system.switch_cpus.power_state.pwrStateResidencyTicks::OFF   8054804800                       # Cumulative time (in ticks) in various power states
system.switch_cpus.rename.squashCycles          92304                       # Number of cycles rename is squashing
system.switch_cpus.rename.idleCycles          1193614                       # Number of cycles rename is idle
system.switch_cpus.rename.blockCycles         7565791                       # Number of cycles rename is blocking
system.switch_cpus.rename.serializeStallCycles            0                       # count of cycles rename stalledfor serializing inst
system.switch_cpus.rename.runCycles           2415326                       # Number of cycles rename is running
system.switch_cpus.rename.unblockCycles       8869977                       # Number of cycles rename is unblocking
system.switch_cpus.rename.renamedInsts       16556715                       # Number of instructions processed by rename
system.switch_cpus.rename.squashedInsts        291436                       # Number of squashed instructions processed by rename
system.switch_cpus.rename.ROBFullEvents         37201                       # Number of times rename has blocked due to ROB full
system.switch_cpus.rename.IQFullEvents         662647                       # Number of times rename has blocked due to IQ full
system.switch_cpus.rename.LQFullEvents           1884                       # Number of times rename has blocked due to LQ full
system.switch_cpus.rename.SQFullEvents            100                       # Number of times rename has blocked due to SQ full
system.switch_cpus.rename.fullRegistersEvents      8427095                       # Number of times there has been no free registers
system.switch_cpus.rename.renamedOperands     21274605                       # Number of destination operands rename has renamed
system.switch_cpus.rename.lookups            28827458                       # Number of register rename lookups that rename has made
system.switch_cpus.rename.intLookups         17560817                       # Number of integer rename lookups
system.switch_cpus.rename.committedMaps      13807666                       # Number of HB maps that are committed
system.switch_cpus.rename.undoneMaps          7467075                       # Number of HB maps that are undone due to squashing
system.switch_cpus.rename.serializing               0                       # count of serializing insts renamed
system.switch_cpus.rename.tempSerializing            0                       # count of temporary serializing insts renamed
system.switch_cpus.rename.skidInsts           3818284                       # count of insts added to the skid buffer
system.switch_cpus.rob.reads                 32656427                       # The number of ROB reads
system.switch_cpus.rob.writes                33636413                       # The number of ROB writes
system.switch_cpus.thread_0.numInsts         10000003                       # Number of Instructions committed
system.switch_cpus.thread_0.numOps           10408896                       # Number of Ops committed
system.switch_cpus.thread_0.numMemRefs              0                       # Number of Memory References
system.tol2bus.trans_dist::ReadResp            704942                       # Transaction distribution
system.tol2bus.trans_dist::WritebackDirty        61401                       # Transaction distribution
system.tol2bus.trans_dist::WritebackClean       669120                       # Transaction distribution
system.tol2bus.trans_dist::CleanEvict          378964                       # Transaction distribution
system.tol2bus.trans_dist::HardPFReq           229797                       # Transaction distribution
system.tol2bus.trans_dist::ReadExReq            15029                       # Transaction distribution
system.tol2bus.trans_dist::ReadExResp           15029                       # Transaction distribution
system.tol2bus.trans_dist::ReadCleanReq             1                       # Transaction distribution
system.tol2bus.trans_dist::ReadSharedReq       704937                       # Transaction distribution
system.tol2bus.pkt_count_system.cpu.icache.mem_side_port::system.l2.cpu_side_port            2                       # Packet count per connected requestor and responder (bytes)
system.tol2bus.pkt_count_system.cpu.dcache.mem_side_port::system.l2.cpu_side_port      2159906                       # Packet count per connected requestor and responder (bytes)
system.tol2bus.pkt_count::total               2159908                       # Packet count per connected requestor and responder (bytes)
system.tol2bus.pkt_size_system.cpu.icache.mem_side_port::system.l2.cpu_side_port          128                       # Cumulative packet size per connected requestor and responder (bytes)
system.tol2bus.pkt_size_system.cpu.dcache.mem_side_port::system.l2.cpu_side_port    184312320                       # Cumulative packet size per connected requestor and responder (bytes)
system.tol2bus.pkt_size::total              184312448                       # Cumulative packet size per connected requestor and responder (bytes)
system.tol2bus.snoops                          619312                       # Total snoops (count)
system.tol2bus.snoopTraffic                   1350528                       # Total snoop traffic (bytes)
system.tol2bus.snoop_fanout::samples          1339279                       # Request fanout histogram
system.tol2bus.snoop_fanout::mean            0.002520                       # Request fanout histogram
system.tol2bus.snoop_fanout::stdev           0.050136                       # Request fanout histogram
system.tol2bus.snoop_fanout::underflows             0      0.00%      0.00% # Request fanout histogram
system.tol2bus.snoop_fanout::0                1335904     99.75%     99.75% # Request fanout histogram
system.tol2bus.snoop_fanout::1                   3375      0.25%    100.00% # Request fanout histogram
system.tol2bus.snoop_fanout::2                      0      0.00%    100.00% # Request fanout histogram
system.tol2bus.snoop_fanout::3                      0      0.00%    100.00% # Request fanout histogram
system.tol2bus.snoop_fanout::4                      0      0.00%    100.00% # Request fanout histogram
system.tol2bus.snoop_fanout::overflows              0      0.00%    100.00% # Request fanout histogram
system.tol2bus.snoop_fanout::min_value              0                       # Request fanout histogram
system.tol2bus.snoop_fanout::max_value              1                       # Request fanout histogram
system.tol2bus.snoop_fanout::total            1339279                       # Request fanout histogram
system.tol2bus.power_state.pwrStateResidencyTicks::UNDEFINED   8054804800                       # Cumulative time (in ticks) in various power states
system.tol2bus.reqLayer0.occupancy         1727926800                       # Layer occupancy (ticks)
system.tol2bus.reqLayer0.utilization             21.5                       # Layer utilization (%)
system.tol2bus.respLayer0.occupancy              2000                       # Layer occupancy (ticks)
system.tol2bus.respLayer0.utilization             0.0                       # Layer utilization (%)
system.tol2bus.respLayer1.occupancy        1439940000                       # Layer occupancy (ticks)
system.tol2bus.respLayer1.utilization            17.9                       # Layer utilization (%)
system.voltage_domain.voltage                       1                       # Voltage in Volts

---------- End Simulation Statistics   ----------
