
---------- Begin Simulation Statistics ----------
final_tick                               330407429200                       # Number of ticks from beginning of simulation (restored from checkpoints and never reset)
host_inst_rate                                 209159                       # Simulator instruction rate (inst/s)
host_mem_usage                               16986508                       # Number of bytes of host memory used
host_op_rate                                   238545                       # Simulator op (including micro ops) rate (op/s)
host_seconds                                     4.78                       # Real time elapsed on the host
host_tick_rate                               93169525                       # Simulator tick rate (ticks/s)
sim_freq                                 1000000000000                       # Frequency of simulated ticks
sim_insts                                     1000025                       # Number of instructions simulated
sim_ops                                       1140541                       # Number of ops (including micro ops) simulated
sim_seconds                                  0.000445                       # Number of seconds simulated
sim_ticks                                   445466200                       # Number of ticks simulated
system.cpu.Branches                                 2                       # Number of branches fetched
system.cpu.committedInsts                          24                       # Number of instructions committed
system.cpu.committedOps                            24                       # Number of ops (including micro ops) committed
system.cpu.idle_fraction                            0                       # Percentage of idle cycles
system.cpu.not_idle_fraction                        1                       # Percentage of non-idle cycles
system.cpu.numCycles                               24                       # number of cpu cycles simulated
system.cpu.numWorkItemsCompleted                    0                       # number of work items this cpu completed
system.cpu.numWorkItemsStarted                      0                       # number of work items this cpu started
system.cpu.num_busy_cycles                         24                       # Number of busy cycles
system.cpu.num_cc_register_reads                    6                       # number of times the CC registers were read
system.cpu.num_cc_register_writes                   6                       # number of times the CC registers were written
system.cpu.num_conditional_control_insts            2                       # number of instructions that are conditional controls
system.cpu.num_fp_alu_accesses                      0                       # Number of float alu accesses
system.cpu.num_fp_insts                             0                       # number of float instructions
system.cpu.num_fp_register_reads                    0                       # number of times the floating registers were read
system.cpu.num_fp_register_writes                   0                       # number of times the floating registers were written
system.cpu.num_func_calls                           0                       # number of times a function call or return occured
system.cpu.num_idle_cycles                          0                       # Number of idle cycles
system.cpu.num_int_alu_accesses                    22                       # Number of integer alu accesses
system.cpu.num_int_insts                           22                       # number of integer instructions
system.cpu.num_int_register_reads                  25                       # number of times the integer registers were read
system.cpu.num_int_register_writes                 22                       # number of times the integer registers were written
system.cpu.num_load_insts                           9                       # Number of load instructions
system.cpu.num_mem_refs                             9                       # number of memory refs
system.cpu.num_store_insts                          0                       # Number of store instructions
system.cpu.num_vec_alu_accesses                     0                       # Number of vector alu accesses
system.cpu.num_vec_insts                            0                       # number of vector instructions
system.cpu.num_vec_register_reads                   0                       # number of times the vector registers were read
system.cpu.num_vec_register_writes                  0                       # number of times the vector registers were written
system.cpu.op_class::No_OpClass                     0      0.00%      0.00% # Class of executed instruction
system.cpu.op_class::IntAlu                        15     62.50%     62.50% # Class of executed instruction
system.cpu.op_class::IntMult                        0      0.00%     62.50% # Class of executed instruction
system.cpu.op_class::IntDiv                         0      0.00%     62.50% # Class of executed instruction
system.cpu.op_class::FloatAdd                       0      0.00%     62.50% # Class of executed instruction
system.cpu.op_class::FloatCmp                       0      0.00%     62.50% # Class of executed instruction
system.cpu.op_class::FloatCvt                       0      0.00%     62.50% # Class of executed instruction
system.cpu.op_class::FloatMult                      0      0.00%     62.50% # Class of executed instruction
system.cpu.op_class::FloatMultAcc                   0      0.00%     62.50% # Class of executed instruction
system.cpu.op_class::FloatDiv                       0      0.00%     62.50% # Class of executed instruction
system.cpu.op_class::FloatMisc                      0      0.00%     62.50% # Class of executed instruction
system.cpu.op_class::FloatSqrt                      0      0.00%     62.50% # Class of executed instruction
system.cpu.op_class::SimdAdd                        0      0.00%     62.50% # Class of executed instruction
system.cpu.op_class::SimdAddAcc                     0      0.00%     62.50% # Class of executed instruction
system.cpu.op_class::SimdAlu                        0      0.00%     62.50% # Class of executed instruction
system.cpu.op_class::SimdCmp                        0      0.00%     62.50% # Class of executed instruction
system.cpu.op_class::SimdCvt                        0      0.00%     62.50% # Class of executed instruction
system.cpu.op_class::SimdMisc                       0      0.00%     62.50% # Class of executed instruction
system.cpu.op_class::SimdMult                       0      0.00%     62.50% # Class of executed instruction
system.cpu.op_class::SimdMultAcc                    0      0.00%     62.50% # Class of executed instruction
system.cpu.op_class::SimdShift                      0      0.00%     62.50% # Class of executed instruction
system.cpu.op_class::SimdShiftAcc                   0      0.00%     62.50% # Class of executed instruction
system.cpu.op_class::SimdDiv                        0      0.00%     62.50% # Class of executed instruction
system.cpu.op_class::SimdSqrt                       0      0.00%     62.50% # Class of executed instruction
system.cpu.op_class::SimdFloatAdd                   0      0.00%     62.50% # Class of executed instruction
system.cpu.op_class::SimdFloatAlu                   0      0.00%     62.50% # Class of executed instruction
system.cpu.op_class::SimdFloatCmp                   0      0.00%     62.50% # Class of executed instruction
system.cpu.op_class::SimdFloatCvt                   0      0.00%     62.50% # Class of executed instruction
system.cpu.op_class::SimdFloatDiv                   0      0.00%     62.50% # Class of executed instruction
system.cpu.op_class::SimdFloatMisc                  0      0.00%     62.50% # Class of executed instruction
system.cpu.op_class::SimdFloatMult                  0      0.00%     62.50% # Class of executed instruction
system.cpu.op_class::SimdFloatMultAcc               0      0.00%     62.50% # Class of executed instruction
system.cpu.op_class::SimdFloatSqrt                  0      0.00%     62.50% # Class of executed instruction
system.cpu.op_class::SimdReduceAdd                  0      0.00%     62.50% # Class of executed instruction
system.cpu.op_class::SimdReduceAlu                  0      0.00%     62.50% # Class of executed instruction
system.cpu.op_class::SimdReduceCmp                  0      0.00%     62.50% # Class of executed instruction
system.cpu.op_class::SimdFloatReduceAdd             0      0.00%     62.50% # Class of executed instruction
system.cpu.op_class::SimdFloatReduceCmp             0      0.00%     62.50% # Class of executed instruction
system.cpu.op_class::SimdAes                        0      0.00%     62.50% # Class of executed instruction
system.cpu.op_class::SimdAesMix                     0      0.00%     62.50% # Class of executed instruction
system.cpu.op_class::SimdSha1Hash                   0      0.00%     62.50% # Class of executed instruction
system.cpu.op_class::SimdSha1Hash2                  0      0.00%     62.50% # Class of executed instruction
system.cpu.op_class::SimdSha256Hash                 0      0.00%     62.50% # Class of executed instruction
system.cpu.op_class::SimdSha256Hash2                0      0.00%     62.50% # Class of executed instruction
system.cpu.op_class::SimdShaSigma2                  0      0.00%     62.50% # Class of executed instruction
system.cpu.op_class::SimdShaSigma3                  0      0.00%     62.50% # Class of executed instruction
system.cpu.op_class::SimdPredAlu                    0      0.00%     62.50% # Class of executed instruction
system.cpu.op_class::MemRead                        9     37.50%    100.00% # Class of executed instruction
system.cpu.op_class::MemWrite                       0      0.00%    100.00% # Class of executed instruction
system.cpu.op_class::FloatMemRead                   0      0.00%    100.00% # Class of executed instruction
system.cpu.op_class::FloatMemWrite                  0      0.00%    100.00% # Class of executed instruction
system.cpu.op_class::IprAccess                      0      0.00%    100.00% # Class of executed instruction
system.cpu.op_class::InstPrefetch                   0      0.00%    100.00% # Class of executed instruction
system.cpu.op_class::total                         24                       # Class of executed instruction
system.cpu.workload.numSyscalls                     0                       # Number of system calls
system.membus.snoop_filter.hit_multi_requests            0                       # Number of requests hitting in the snoop filter with multiple (>1) holders of the requested data.
system.membus.snoop_filter.hit_multi_snoops            0                       # Number of snoops hitting in the snoop filter with multiple (>1) holders of the requested data.
system.membus.snoop_filter.hit_single_requests            0                       # Number of requests hitting in the snoop filter with a single holder of the requested data.
system.membus.snoop_filter.hit_single_snoops            0                       # Number of snoops hitting in the snoop filter with a single holder of the requested data.
system.membus.snoop_filter.tot_requests           446                       # Total number of requests made to the snoop filter.
system.membus.snoop_filter.tot_snoops               0                       # Total number of snoops made to the snoop filter.
system.switch_cpus.cc_regfile_reads            568173                       # number of cc regfile reads
system.switch_cpus.cc_regfile_writes           567765                       # number of cc regfile writes
system.switch_cpus.committedInsts             1000001                       # Number of Instructions Simulated
system.switch_cpus.committedOps               1140517                       # Number of Ops (including micro ops) Simulated
system.switch_cpus.cpi                       1.113639                       # CPI: Cycles Per Instruction
system.switch_cpus.cpi_total                 1.113639                       # CPI: Total CPI of All Threads
system.switch_cpus.idleCycles                    6610                       # Total number of cycles that the CPU has spent unscheduled due to idling
system.switch_cpus.iew.branchMispredicts        24520                       # Number of branch mispredicts detected at execute
system.switch_cpus.iew.exec_branches           309105                       # Number of branches executed
system.switch_cpus.iew.exec_nop                  3536                       # number of nop insts executed
system.switch_cpus.iew.exec_rate             1.526745                       # Inst execution rate
system.switch_cpus.iew.exec_refs               584383                       # number of memory reference insts executed
system.switch_cpus.iew.exec_stores             222654                       # Number of stores executed
system.switch_cpus.iew.exec_swp                     0                       # number of swp insts executed
system.switch_cpus.iew.iewBlockCycles          382786                       # Number of cycles IEW is blocking
system.switch_cpus.iew.iewDispLoadInsts        642343                       # Number of dispatched load instructions
system.switch_cpus.iew.iewDispNonSpecInsts           27                       # Number of dispatched non-speculative instructions
system.switch_cpus.iew.iewDispSquashedInsts            0                       # Number of squashed instructions skipped by dispatch
system.switch_cpus.iew.iewDispStoreInsts       406503                       # Number of dispatched store instructions
system.switch_cpus.iew.iewDispatchedInsts      2739715                       # Number of instructions dispatched to IQ
system.switch_cpus.iew.iewExecLoadInsts        361729                       # Number of load instructions executed
system.switch_cpus.iew.iewExecSquashedInsts        32853                       # Number of squashed instructions skipped in execute
system.switch_cpus.iew.iewExecutedInsts       1700244                       # Number of executed instructions
system.switch_cpus.iew.iewIQFullEvents              0                       # Number of times the IQ has become full, causing a stall
system.switch_cpus.iew.iewIdleCycles                0                       # Number of cycles IEW is idle
system.switch_cpus.iew.iewLSQFullEvents             0                       # Number of times the LSQ has become full, causing a stall
system.switch_cpus.iew.iewSquashCycles          19444                       # Number of cycles IEW is squashing
system.switch_cpus.iew.iewUnblockCycles             0                       # Number of cycles IEW is unblocking
system.switch_cpus.iew.memOrderViolationEvents          111                       # Number of memory order violations
system.switch_cpus.iew.predictedNotTakenIncorrect        15651                       # Number of branches that were predicted not taken incorrectly
system.switch_cpus.iew.predictedTakenIncorrect         8869                       # Number of branches that were predicted taken incorrectly
system.switch_cpus.iew.wb_consumers           2040250                       # num instructions consuming a value
system.switch_cpus.iew.wb_count               1679443                       # cumulative count of insts written-back
system.switch_cpus.iew.wb_fanout             0.521574                       # average fanout of values written-back
system.switch_cpus.iew.wb_producers           1064141                       # num instructions producing a value
system.switch_cpus.iew.wb_rate               1.508066                       # insts written-back per cycle
system.switch_cpus.iew.wb_sent                1692667                       # cumulative count of insts sent to commit
system.switch_cpus.int_regfile_reads          1872950                       # number of integer regfile reads
system.switch_cpus.int_regfile_writes         1204093                       # number of integer regfile writes
system.switch_cpus.ipc                       0.897957                       # IPC: Instructions Per Cycle
system.switch_cpus.ipc_total                 0.897957                       # IPC: Total IPC of All Threads
system.switch_cpus.iq.FU_type_0::No_OpClass          412      0.02%      0.02% # Type of FU issued
system.switch_cpus.iq.FU_type_0::IntAlu       1108146     63.94%     63.96% # Type of FU issued
system.switch_cpus.iq.FU_type_0::IntMult         8522      0.49%     64.46% # Type of FU issued
system.switch_cpus.iq.FU_type_0::IntDiv             3      0.00%     64.46% # Type of FU issued
system.switch_cpus.iq.FU_type_0::FloatAdd            0      0.00%     64.46% # Type of FU issued
system.switch_cpus.iq.FU_type_0::FloatCmp            0      0.00%     64.46% # Type of FU issued
system.switch_cpus.iq.FU_type_0::FloatCvt            0      0.00%     64.46% # Type of FU issued
system.switch_cpus.iq.FU_type_0::FloatMult            0      0.00%     64.46% # Type of FU issued
system.switch_cpus.iq.FU_type_0::FloatMultAcc            0      0.00%     64.46% # Type of FU issued
system.switch_cpus.iq.FU_type_0::FloatDiv            0      0.00%     64.46% # Type of FU issued
system.switch_cpus.iq.FU_type_0::FloatMisc            0      0.00%     64.46% # Type of FU issued
system.switch_cpus.iq.FU_type_0::FloatSqrt            0      0.00%     64.46% # Type of FU issued
system.switch_cpus.iq.FU_type_0::SimdAdd            0      0.00%     64.46% # Type of FU issued
system.switch_cpus.iq.FU_type_0::SimdAddAcc            0      0.00%     64.46% # Type of FU issued
system.switch_cpus.iq.FU_type_0::SimdAlu            0      0.00%     64.46% # Type of FU issued
system.switch_cpus.iq.FU_type_0::SimdCmp            0      0.00%     64.46% # Type of FU issued
system.switch_cpus.iq.FU_type_0::SimdCvt            0      0.00%     64.46% # Type of FU issued
system.switch_cpus.iq.FU_type_0::SimdMisc            0      0.00%     64.46% # Type of FU issued
system.switch_cpus.iq.FU_type_0::SimdMult            0      0.00%     64.46% # Type of FU issued
system.switch_cpus.iq.FU_type_0::SimdMultAcc            0      0.00%     64.46% # Type of FU issued
system.switch_cpus.iq.FU_type_0::SimdShift            0      0.00%     64.46% # Type of FU issued
system.switch_cpus.iq.FU_type_0::SimdShiftAcc            0      0.00%     64.46% # Type of FU issued
system.switch_cpus.iq.FU_type_0::SimdDiv            0      0.00%     64.46% # Type of FU issued
system.switch_cpus.iq.FU_type_0::SimdSqrt            0      0.00%     64.46% # Type of FU issued
system.switch_cpus.iq.FU_type_0::SimdFloatAdd            0      0.00%     64.46% # Type of FU issued
system.switch_cpus.iq.FU_type_0::SimdFloatAlu            0      0.00%     64.46% # Type of FU issued
system.switch_cpus.iq.FU_type_0::SimdFloatCmp            0      0.00%     64.46% # Type of FU issued
system.switch_cpus.iq.FU_type_0::SimdFloatCvt            0      0.00%     64.46% # Type of FU issued
system.switch_cpus.iq.FU_type_0::SimdFloatDiv            0      0.00%     64.46% # Type of FU issued
system.switch_cpus.iq.FU_type_0::SimdFloatMisc            0      0.00%     64.46% # Type of FU issued
system.switch_cpus.iq.FU_type_0::SimdFloatMult            0      0.00%     64.46% # Type of FU issued
system.switch_cpus.iq.FU_type_0::SimdFloatMultAcc            0      0.00%     64.46% # Type of FU issued
system.switch_cpus.iq.FU_type_0::SimdFloatSqrt            0      0.00%     64.46% # Type of FU issued
system.switch_cpus.iq.FU_type_0::SimdReduceAdd            0      0.00%     64.46% # Type of FU issued
system.switch_cpus.iq.FU_type_0::SimdReduceAlu            0      0.00%     64.46% # Type of FU issued
system.switch_cpus.iq.FU_type_0::SimdReduceCmp            0      0.00%     64.46% # Type of FU issued
system.switch_cpus.iq.FU_type_0::SimdFloatReduceAdd            0      0.00%     64.46% # Type of FU issued
system.switch_cpus.iq.FU_type_0::SimdFloatReduceCmp            0      0.00%     64.46% # Type of FU issued
system.switch_cpus.iq.FU_type_0::SimdAes            0      0.00%     64.46% # Type of FU issued
system.switch_cpus.iq.FU_type_0::SimdAesMix            0      0.00%     64.46% # Type of FU issued
system.switch_cpus.iq.FU_type_0::SimdSha1Hash            0      0.00%     64.46% # Type of FU issued
system.switch_cpus.iq.FU_type_0::SimdSha1Hash2            0      0.00%     64.46% # Type of FU issued
system.switch_cpus.iq.FU_type_0::SimdSha256Hash            0      0.00%     64.46% # Type of FU issued
system.switch_cpus.iq.FU_type_0::SimdSha256Hash2            0      0.00%     64.46% # Type of FU issued
system.switch_cpus.iq.FU_type_0::SimdShaSigma2            0      0.00%     64.46% # Type of FU issued
system.switch_cpus.iq.FU_type_0::SimdShaSigma3            0      0.00%     64.46% # Type of FU issued
system.switch_cpus.iq.FU_type_0::SimdPredAlu            0      0.00%     64.46% # Type of FU issued
system.switch_cpus.iq.FU_type_0::MemRead       380375     21.95%     86.40% # Type of FU issued
system.switch_cpus.iq.FU_type_0::MemWrite       235639     13.60%    100.00% # Type of FU issued
system.switch_cpus.iq.FU_type_0::FloatMemRead            0      0.00%    100.00% # Type of FU issued
system.switch_cpus.iq.FU_type_0::FloatMemWrite            0      0.00%    100.00% # Type of FU issued
system.switch_cpus.iq.FU_type_0::IprAccess            0      0.00%    100.00% # Type of FU issued
system.switch_cpus.iq.FU_type_0::InstPrefetch            0      0.00%    100.00% # Type of FU issued
system.switch_cpus.iq.FU_type_0::total        1733097                       # Type of FU issued
system.switch_cpus.iq.fp_alu_accesses               0                       # Number of floating point alu accesses
system.switch_cpus.iq.fp_inst_queue_reads            0                       # Number of floating instruction queue reads
system.switch_cpus.iq.fp_inst_queue_wakeup_accesses            0                       # Number of floating instruction queue wakeup accesses
system.switch_cpus.iq.fp_inst_queue_writes            0                       # Number of floating instruction queue writes
system.switch_cpus.iq.fu_busy_cnt              851611                       # FU busy when requested
system.switch_cpus.iq.fu_busy_rate           0.491381                       # FU busy rate (busy events/executed inst)
system.switch_cpus.iq.fu_full::No_OpClass            0      0.00%      0.00% # attempts to use FU when none available
system.switch_cpus.iq.fu_full::IntAlu          504623     59.26%     59.26% # attempts to use FU when none available
system.switch_cpus.iq.fu_full::IntMult              0      0.00%     59.26% # attempts to use FU when none available
system.switch_cpus.iq.fu_full::IntDiv               0      0.00%     59.26% # attempts to use FU when none available
system.switch_cpus.iq.fu_full::FloatAdd             0      0.00%     59.26% # attempts to use FU when none available
system.switch_cpus.iq.fu_full::FloatCmp             0      0.00%     59.26% # attempts to use FU when none available
system.switch_cpus.iq.fu_full::FloatCvt             0      0.00%     59.26% # attempts to use FU when none available
system.switch_cpus.iq.fu_full::FloatMult            0      0.00%     59.26% # attempts to use FU when none available
system.switch_cpus.iq.fu_full::FloatMultAcc            0      0.00%     59.26% # attempts to use FU when none available
system.switch_cpus.iq.fu_full::FloatDiv             0      0.00%     59.26% # attempts to use FU when none available
system.switch_cpus.iq.fu_full::FloatMisc            0      0.00%     59.26% # attempts to use FU when none available
system.switch_cpus.iq.fu_full::FloatSqrt            0      0.00%     59.26% # attempts to use FU when none available
system.switch_cpus.iq.fu_full::SimdAdd              0      0.00%     59.26% # attempts to use FU when none available
system.switch_cpus.iq.fu_full::SimdAddAcc            0      0.00%     59.26% # attempts to use FU when none available
system.switch_cpus.iq.fu_full::SimdAlu              0      0.00%     59.26% # attempts to use FU when none available
system.switch_cpus.iq.fu_full::SimdCmp              0      0.00%     59.26% # attempts to use FU when none available
system.switch_cpus.iq.fu_full::SimdCvt              0      0.00%     59.26% # attempts to use FU when none available
system.switch_cpus.iq.fu_full::SimdMisc             0      0.00%     59.26% # attempts to use FU when none available
system.switch_cpus.iq.fu_full::SimdMult             0      0.00%     59.26% # attempts to use FU when none available
system.switch_cpus.iq.fu_full::SimdMultAcc            0      0.00%     59.26% # attempts to use FU when none available
system.switch_cpus.iq.fu_full::SimdShift            0      0.00%     59.26% # attempts to use FU when none available
system.switch_cpus.iq.fu_full::SimdShiftAcc            0      0.00%     59.26% # attempts to use FU when none available
system.switch_cpus.iq.fu_full::SimdDiv              0      0.00%     59.26% # attempts to use FU when none available
system.switch_cpus.iq.fu_full::SimdSqrt             0      0.00%     59.26% # attempts to use FU when none available
system.switch_cpus.iq.fu_full::SimdFloatAdd            0      0.00%     59.26% # attempts to use FU when none available
system.switch_cpus.iq.fu_full::SimdFloatAlu            0      0.00%     59.26% # attempts to use FU when none available
system.switch_cpus.iq.fu_full::SimdFloatCmp            0      0.00%     59.26% # attempts to use FU when none available
system.switch_cpus.iq.fu_full::SimdFloatCvt            0      0.00%     59.26% # attempts to use FU when none available
system.switch_cpus.iq.fu_full::SimdFloatDiv            0      0.00%     59.26% # attempts to use FU when none available
system.switch_cpus.iq.fu_full::SimdFloatMisc            0      0.00%     59.26% # attempts to use FU when none available
system.switch_cpus.iq.fu_full::SimdFloatMult            0      0.00%     59.26% # attempts to use FU when none available
system.switch_cpus.iq.fu_full::SimdFloatMultAcc            0      0.00%     59.26% # attempts to use FU when none available
system.switch_cpus.iq.fu_full::SimdFloatSqrt            0      0.00%     59.26% # attempts to use FU when none available
system.switch_cpus.iq.fu_full::SimdReduceAdd            0      0.00%     59.26% # attempts to use FU when none available
system.switch_cpus.iq.fu_full::SimdReduceAlu            0      0.00%     59.26% # attempts to use FU when none available
system.switch_cpus.iq.fu_full::SimdReduceCmp            0      0.00%     59.26% # attempts to use FU when none available
system.switch_cpus.iq.fu_full::SimdFloatReduceAdd            0      0.00%     59.26% # attempts to use FU when none available
system.switch_cpus.iq.fu_full::SimdFloatReduceCmp            0      0.00%     59.26% # attempts to use FU when none available
system.switch_cpus.iq.fu_full::SimdAes              0      0.00%     59.26% # attempts to use FU when none available
system.switch_cpus.iq.fu_full::SimdAesMix            0      0.00%     59.26% # attempts to use FU when none available
system.switch_cpus.iq.fu_full::SimdSha1Hash            0      0.00%     59.26% # attempts to use FU when none available
system.switch_cpus.iq.fu_full::SimdSha1Hash2            0      0.00%     59.26% # attempts to use FU when none available
system.switch_cpus.iq.fu_full::SimdSha256Hash            0      0.00%     59.26% # attempts to use FU when none available
system.switch_cpus.iq.fu_full::SimdSha256Hash2            0      0.00%     59.26% # attempts to use FU when none available
system.switch_cpus.iq.fu_full::SimdShaSigma2            0      0.00%     59.26% # attempts to use FU when none available
system.switch_cpus.iq.fu_full::SimdShaSigma3            0      0.00%     59.26% # attempts to use FU when none available
system.switch_cpus.iq.fu_full::SimdPredAlu            0      0.00%     59.26% # attempts to use FU when none available
system.switch_cpus.iq.fu_full::MemRead         212658     24.97%     84.23% # attempts to use FU when none available
system.switch_cpus.iq.fu_full::MemWrite        134330     15.77%    100.00% # attempts to use FU when none available
system.switch_cpus.iq.fu_full::FloatMemRead            0      0.00%    100.00% # attempts to use FU when none available
system.switch_cpus.iq.fu_full::FloatMemWrite            0      0.00%    100.00% # attempts to use FU when none available
system.switch_cpus.iq.fu_full::IprAccess            0      0.00%    100.00% # attempts to use FU when none available
system.switch_cpus.iq.fu_full::InstPrefetch            0      0.00%    100.00% # attempts to use FU when none available
system.switch_cpus.iq.int_alu_accesses        2584296                       # Number of integer alu accesses
system.switch_cpus.iq.int_inst_queue_reads      5630582                       # Number of integer instruction queue reads
system.switch_cpus.iq.int_inst_queue_wakeup_accesses      1679443                       # Number of integer instruction queue wakeup accesses
system.switch_cpus.iq.int_inst_queue_writes      4331935                       # Number of integer instruction queue writes
system.switch_cpus.iq.iqInstsAdded            2736152                       # Number of instructions added to the IQ (excludes non-spec)
system.switch_cpus.iq.iqInstsIssued           1733097                       # Number of instructions issued
system.switch_cpus.iq.iqNonSpecInstsAdded           27                       # Number of non-speculative instructions added to the IQ
system.switch_cpus.iq.iqSquashedInstsExamined      1595645                       # Number of squashed instructions iterated over during squash; mainly for profiling
system.switch_cpus.iq.iqSquashedInstsIssued       205747                       # Number of squashed instructions issued
system.switch_cpus.iq.iqSquashedNonSpecRemoved           27                       # Number of squashed non-spec instructions that were removed
system.switch_cpus.iq.iqSquashedOperandsExamined      1623671                       # Number of squashed operands that are examined and possibly removed from graph
system.switch_cpus.iq.issued_per_cycle::samples      1107030                       # Number of insts issued each cycle
system.switch_cpus.iq.issued_per_cycle::mean     1.565538                       # Number of insts issued each cycle
system.switch_cpus.iq.issued_per_cycle::stdev     1.562307                       # Number of insts issued each cycle
system.switch_cpus.iq.issued_per_cycle::underflows            0      0.00%      0.00% # Number of insts issued each cycle
system.switch_cpus.iq.issued_per_cycle::0       508968     45.98%     45.98% # Number of insts issued each cycle
system.switch_cpus.iq.issued_per_cycle::1        38626      3.49%     49.47% # Number of insts issued each cycle
system.switch_cpus.iq.issued_per_cycle::2       113492     10.25%     59.72% # Number of insts issued each cycle
system.switch_cpus.iq.issued_per_cycle::3       317086     28.64%     88.36% # Number of insts issued each cycle
system.switch_cpus.iq.issued_per_cycle::4       128061     11.57%     99.93% # Number of insts issued each cycle
system.switch_cpus.iq.issued_per_cycle::5          797      0.07%    100.00% # Number of insts issued each cycle
system.switch_cpus.iq.issued_per_cycle::6            0      0.00%    100.00% # Number of insts issued each cycle
system.switch_cpus.iq.issued_per_cycle::7            0      0.00%    100.00% # Number of insts issued each cycle
system.switch_cpus.iq.issued_per_cycle::8            0      0.00%    100.00% # Number of insts issued each cycle
system.switch_cpus.iq.issued_per_cycle::overflows            0      0.00%    100.00% # Number of insts issued each cycle
system.switch_cpus.iq.issued_per_cycle::min_value            0                       # Number of insts issued each cycle
system.switch_cpus.iq.issued_per_cycle::max_value            5                       # Number of insts issued each cycle
system.switch_cpus.iq.issued_per_cycle::total      1107030                       # Number of insts issued each cycle
system.switch_cpus.iq.rate                   1.556245                       # Inst issue rate
system.switch_cpus.iq.vec_alu_accesses              0                       # Number of vector alu accesses
system.switch_cpus.iq.vec_inst_queue_reads            0                       # Number of vector instruction queue reads
system.switch_cpus.iq.vec_inst_queue_wakeup_accesses            0                       # Number of vector instruction queue wakeup accesses
system.switch_cpus.iq.vec_inst_queue_writes            0                       # Number of vector instruction queue writes
system.switch_cpus.memDep0.conflictingLoads       316266                       # Number of conflicting loads.
system.switch_cpus.memDep0.conflictingStores       239861                       # Number of conflicting stores.
system.switch_cpus.memDep0.insertedLoads       642343                       # Number of loads inserted to the mem dependence unit.
system.switch_cpus.memDep0.insertedStores       406503                       # Number of stores inserted to the mem dependence unit.
system.switch_cpus.misc_regfile_reads         4078362                       # number of misc regfile reads
system.switch_cpus.misc_regfile_writes              1                       # number of misc regfile writes
system.switch_cpus.numCycles                  1113640                       # number of cpu cycles simulated
system.switch_cpus.numWorkItemsCompleted            0                       # number of work items this cpu completed
system.switch_cpus.numWorkItemsStarted              0                       # number of work items this cpu started
system.switch_cpus.timesIdled                      60                       # Number of times that the entire CPU went into an idle state and unscheduled itself
system.switch_cpus.vec_regfile_writes              44                       # number of vector regfile writes
system.tol2bus.snoop_filter.hit_multi_requests            0                       # Number of requests hitting in the snoop filter with multiple (>1) holders of the requested data.
system.tol2bus.snoop_filter.hit_multi_snoops            0                       # Number of snoops hitting in the snoop filter with multiple (>1) holders of the requested data.
system.tol2bus.snoop_filter.hit_single_requests          124                       # Number of requests hitting in the snoop filter with a single holder of the requested data.
system.tol2bus.snoop_filter.hit_single_snoops           15                       # Number of snoops hitting in the snoop filter with a single holder of the requested data.
system.tol2bus.snoop_filter.tot_requests          590                       # Total number of requests made to the snoop filter.
system.tol2bus.snoop_filter.tot_snoops             15                       # Total number of snoops made to the snoop filter.
system.clk_domain.clock                          1000                       # Clock period in ticks
system.cpu.dcache.demand_hits::.cpu.data            4                       # number of demand (read+write) hits
system.cpu.dcache.demand_hits::.switch_cpus.data       393372                       # number of demand (read+write) hits
system.cpu.dcache.demand_hits::total           393376                       # number of demand (read+write) hits
system.cpu.dcache.overall_hits::.cpu.data            4                       # number of overall hits
system.cpu.dcache.overall_hits::.switch_cpus.data       393372                       # number of overall hits
system.cpu.dcache.overall_hits::total          393376                       # number of overall hits
system.cpu.dcache.demand_misses::.cpu.data            5                       # number of demand (read+write) misses
system.cpu.dcache.demand_misses::.switch_cpus.data         1308                       # number of demand (read+write) misses
system.cpu.dcache.demand_misses::total           1313                       # number of demand (read+write) misses
system.cpu.dcache.overall_misses::.cpu.data            5                       # number of overall misses
system.cpu.dcache.overall_misses::.switch_cpus.data         1308                       # number of overall misses
system.cpu.dcache.overall_misses::total          1313                       # number of overall misses
system.cpu.dcache.demand_miss_latency::.switch_cpus.data     71956800                       # number of demand (read+write) miss cycles
system.cpu.dcache.demand_miss_latency::total     71956800                       # number of demand (read+write) miss cycles
system.cpu.dcache.overall_miss_latency::.switch_cpus.data     71956800                       # number of overall miss cycles
system.cpu.dcache.overall_miss_latency::total     71956800                       # number of overall miss cycles
system.cpu.dcache.demand_accesses::.cpu.data            9                       # number of demand (read+write) accesses
system.cpu.dcache.demand_accesses::.switch_cpus.data       394680                       # number of demand (read+write) accesses
system.cpu.dcache.demand_accesses::total       394689                       # number of demand (read+write) accesses
system.cpu.dcache.overall_accesses::.cpu.data            9                       # number of overall (read+write) accesses
system.cpu.dcache.overall_accesses::.switch_cpus.data       394680                       # number of overall (read+write) accesses
system.cpu.dcache.overall_accesses::total       394689                       # number of overall (read+write) accesses
system.cpu.dcache.demand_miss_rate::.cpu.data     0.555556                       # miss rate for demand accesses
system.cpu.dcache.demand_miss_rate::.switch_cpus.data     0.003314                       # miss rate for demand accesses
system.cpu.dcache.demand_miss_rate::total     0.003327                       # miss rate for demand accesses
system.cpu.dcache.overall_miss_rate::.cpu.data     0.555556                       # miss rate for overall accesses
system.cpu.dcache.overall_miss_rate::.switch_cpus.data     0.003314                       # miss rate for overall accesses
system.cpu.dcache.overall_miss_rate::total     0.003327                       # miss rate for overall accesses
system.cpu.dcache.demand_avg_miss_latency::.switch_cpus.data 55012.844037                       # average overall miss latency
system.cpu.dcache.demand_avg_miss_latency::total 54803.351104                       # average overall miss latency
system.cpu.dcache.overall_avg_miss_latency::.switch_cpus.data 55012.844037                       # average overall miss latency
system.cpu.dcache.overall_avg_miss_latency::total 54803.351104                       # average overall miss latency
system.cpu.dcache.blocked_cycles::no_mshrs            0                       # number of cycles access was blocked
system.cpu.dcache.blocked_cycles::no_targets         2338                       # number of cycles access was blocked
system.cpu.dcache.blocked::no_mshrs                 0                       # number of cycles access was blocked
system.cpu.dcache.blocked::no_targets              16                       # number of cycles access was blocked
system.cpu.dcache.avg_blocked_cycles::no_mshrs          nan                       # average number of cycles each access was blocked
system.cpu.dcache.avg_blocked_cycles::no_targets   146.125000                       # average number of cycles each access was blocked
system.cpu.dcache.writebacks::.writebacks          124                       # number of writebacks
system.cpu.dcache.writebacks::total               124                       # number of writebacks
system.cpu.dcache.demand_mshr_hits::.switch_cpus.data          933                       # number of demand (read+write) MSHR hits
system.cpu.dcache.demand_mshr_hits::total          933                       # number of demand (read+write) MSHR hits
system.cpu.dcache.overall_mshr_hits::.switch_cpus.data          933                       # number of overall MSHR hits
system.cpu.dcache.overall_mshr_hits::total          933                       # number of overall MSHR hits
system.cpu.dcache.demand_mshr_misses::.switch_cpus.data          375                       # number of demand (read+write) MSHR misses
system.cpu.dcache.demand_mshr_misses::total          375                       # number of demand (read+write) MSHR misses
system.cpu.dcache.overall_mshr_misses::.switch_cpus.data          375                       # number of overall MSHR misses
system.cpu.dcache.overall_mshr_misses::total          375                       # number of overall MSHR misses
system.cpu.dcache.demand_mshr_miss_latency::.switch_cpus.data     22616000                       # number of demand (read+write) MSHR miss cycles
system.cpu.dcache.demand_mshr_miss_latency::total     22616000                       # number of demand (read+write) MSHR miss cycles
system.cpu.dcache.overall_mshr_miss_latency::.switch_cpus.data     22616000                       # number of overall MSHR miss cycles
system.cpu.dcache.overall_mshr_miss_latency::total     22616000                       # number of overall MSHR miss cycles
system.cpu.dcache.demand_mshr_miss_rate::.switch_cpus.data     0.000950                       # mshr miss rate for demand accesses
system.cpu.dcache.demand_mshr_miss_rate::total     0.000950                       # mshr miss rate for demand accesses
system.cpu.dcache.overall_mshr_miss_rate::.switch_cpus.data     0.000950                       # mshr miss rate for overall accesses
system.cpu.dcache.overall_mshr_miss_rate::total     0.000950                       # mshr miss rate for overall accesses
system.cpu.dcache.demand_avg_mshr_miss_latency::.switch_cpus.data 60309.333333                       # average overall mshr miss latency
system.cpu.dcache.demand_avg_mshr_miss_latency::total 60309.333333                       # average overall mshr miss latency
system.cpu.dcache.overall_avg_mshr_miss_latency::.switch_cpus.data 60309.333333                       # average overall mshr miss latency
system.cpu.dcache.overall_avg_mshr_miss_latency::total 60309.333333                       # average overall mshr miss latency
system.cpu.dcache.replacements                    124                       # number of replacements
system.cpu.dcache.ReadReq_hits::.cpu.data            4                       # number of ReadReq hits
system.cpu.dcache.ReadReq_hits::.switch_cpus.data       218189                       # number of ReadReq hits
system.cpu.dcache.ReadReq_hits::total          218193                       # number of ReadReq hits
system.cpu.dcache.ReadReq_misses::.cpu.data            5                       # number of ReadReq misses
system.cpu.dcache.ReadReq_misses::.switch_cpus.data          786                       # number of ReadReq misses
system.cpu.dcache.ReadReq_misses::total           791                       # number of ReadReq misses
system.cpu.dcache.ReadReq_miss_latency::.switch_cpus.data     46422400                       # number of ReadReq miss cycles
system.cpu.dcache.ReadReq_miss_latency::total     46422400                       # number of ReadReq miss cycles
system.cpu.dcache.ReadReq_accesses::.cpu.data            9                       # number of ReadReq accesses(hits+misses)
system.cpu.dcache.ReadReq_accesses::.switch_cpus.data       218975                       # number of ReadReq accesses(hits+misses)
system.cpu.dcache.ReadReq_accesses::total       218984                       # number of ReadReq accesses(hits+misses)
system.cpu.dcache.ReadReq_miss_rate::.cpu.data     0.555556                       # miss rate for ReadReq accesses
system.cpu.dcache.ReadReq_miss_rate::.switch_cpus.data     0.003589                       # miss rate for ReadReq accesses
system.cpu.dcache.ReadReq_miss_rate::total     0.003612                       # miss rate for ReadReq accesses
system.cpu.dcache.ReadReq_avg_miss_latency::.switch_cpus.data 59061.577608                       # average ReadReq miss latency
system.cpu.dcache.ReadReq_avg_miss_latency::total 58688.242731                       # average ReadReq miss latency
system.cpu.dcache.ReadReq_mshr_hits::.switch_cpus.data          547                       # number of ReadReq MSHR hits
system.cpu.dcache.ReadReq_mshr_hits::total          547                       # number of ReadReq MSHR hits
system.cpu.dcache.ReadReq_mshr_misses::.switch_cpus.data          239                       # number of ReadReq MSHR misses
system.cpu.dcache.ReadReq_mshr_misses::total          239                       # number of ReadReq MSHR misses
system.cpu.dcache.ReadReq_mshr_miss_latency::.switch_cpus.data     15034400                       # number of ReadReq MSHR miss cycles
system.cpu.dcache.ReadReq_mshr_miss_latency::total     15034400                       # number of ReadReq MSHR miss cycles
system.cpu.dcache.ReadReq_mshr_miss_rate::.switch_cpus.data     0.001091                       # mshr miss rate for ReadReq accesses
system.cpu.dcache.ReadReq_mshr_miss_rate::total     0.001091                       # mshr miss rate for ReadReq accesses
system.cpu.dcache.ReadReq_avg_mshr_miss_latency::.switch_cpus.data 62905.439331                       # average ReadReq mshr miss latency
system.cpu.dcache.ReadReq_avg_mshr_miss_latency::total 62905.439331                       # average ReadReq mshr miss latency
system.cpu.dcache.WriteReq_hits::.switch_cpus.data       175183                       # number of WriteReq hits
system.cpu.dcache.WriteReq_hits::total         175183                       # number of WriteReq hits
system.cpu.dcache.WriteReq_misses::.switch_cpus.data          522                       # number of WriteReq misses
system.cpu.dcache.WriteReq_misses::total          522                       # number of WriteReq misses
system.cpu.dcache.WriteReq_miss_latency::.switch_cpus.data     25534400                       # number of WriteReq miss cycles
system.cpu.dcache.WriteReq_miss_latency::total     25534400                       # number of WriteReq miss cycles
system.cpu.dcache.WriteReq_accesses::.switch_cpus.data       175705                       # number of WriteReq accesses(hits+misses)
system.cpu.dcache.WriteReq_accesses::total       175705                       # number of WriteReq accesses(hits+misses)
system.cpu.dcache.WriteReq_miss_rate::.switch_cpus.data     0.002971                       # miss rate for WriteReq accesses
system.cpu.dcache.WriteReq_miss_rate::total     0.002971                       # miss rate for WriteReq accesses
system.cpu.dcache.WriteReq_avg_miss_latency::.switch_cpus.data 48916.475096                       # average WriteReq miss latency
system.cpu.dcache.WriteReq_avg_miss_latency::total 48916.475096                       # average WriteReq miss latency
system.cpu.dcache.WriteReq_mshr_hits::.switch_cpus.data          386                       # number of WriteReq MSHR hits
system.cpu.dcache.WriteReq_mshr_hits::total          386                       # number of WriteReq MSHR hits
system.cpu.dcache.WriteReq_mshr_misses::.switch_cpus.data          136                       # number of WriteReq MSHR misses
system.cpu.dcache.WriteReq_mshr_misses::total          136                       # number of WriteReq MSHR misses
system.cpu.dcache.WriteReq_mshr_miss_latency::.switch_cpus.data      7581600                       # number of WriteReq MSHR miss cycles
system.cpu.dcache.WriteReq_mshr_miss_latency::total      7581600                       # number of WriteReq MSHR miss cycles
system.cpu.dcache.WriteReq_mshr_miss_rate::.switch_cpus.data     0.000774                       # mshr miss rate for WriteReq accesses
system.cpu.dcache.WriteReq_mshr_miss_rate::total     0.000774                       # mshr miss rate for WriteReq accesses
system.cpu.dcache.WriteReq_avg_mshr_miss_latency::.switch_cpus.data 55747.058824                       # average WriteReq mshr miss latency
system.cpu.dcache.WriteReq_avg_mshr_miss_latency::total 55747.058824                       # average WriteReq mshr miss latency
system.cpu.dcache.power_state.pwrStateResidencyTicks::UNDEFINED 330407429200                       # Cumulative time (in ticks) in various power states
system.cpu.dcache.tags.tagsinuse           188.729610                       # Cycle average of tags in use
system.cpu.dcache.tags.total_refs              146725                       # Total number of references to valid blocks.
system.cpu.dcache.tags.sampled_refs               124                       # Sample count of references to valid blocks.
system.cpu.dcache.tags.avg_refs           1183.266129                       # Average number of references to valid blocks.
system.cpu.dcache.tags.warmup_cycle      329961964800                       # Cycle when the warmup percentage was hit.
system.cpu.dcache.tags.occ_blocks::.cpu.data     3.873232                       # Average occupied blocks per requestor
system.cpu.dcache.tags.occ_blocks::.switch_cpus.data   184.856378                       # Average occupied blocks per requestor
system.cpu.dcache.tags.occ_percent::.cpu.data     0.015130                       # Average percentage of cache occupancy
system.cpu.dcache.tags.occ_percent::.switch_cpus.data     0.722095                       # Average percentage of cache occupancy
system.cpu.dcache.tags.occ_percent::total     0.737225                       # Average percentage of cache occupancy
system.cpu.dcache.tags.occ_task_id_blocks::1024          256                       # Occupied blocks per task id
system.cpu.dcache.tags.age_task_id_blocks_1024::0           15                       # Occupied blocks per task id
system.cpu.dcache.tags.age_task_id_blocks_1024::1           81                       # Occupied blocks per task id
system.cpu.dcache.tags.age_task_id_blocks_1024::2          160                       # Occupied blocks per task id
system.cpu.dcache.tags.occ_task_id_percent::1024            1                       # Percentage of cache occupancy per task id
system.cpu.dcache.tags.tag_accesses           3157892                       # Number of tag accesses
system.cpu.dcache.tags.data_accesses          3157892                       # Number of data accesses
system.cpu.dcache.tags.power_state.pwrStateResidencyTicks::UNDEFINED 330407429200                       # Cumulative time (in ticks) in various power states
system.cpu.dtb.instHits                             0                       # ITB inst hits
system.cpu.dtb.instMisses                           0                       # ITB inst misses
system.cpu.dtb.readHits                             0                       # DTB read hits
system.cpu.dtb.readMisses                           0                       # DTB read misses
system.cpu.dtb.writeHits                            0                       # DTB write hits
system.cpu.dtb.writeMisses                          0                       # DTB write misses
system.cpu.dtb.inserts                              0                       # Number of times an entry is inserted into the TLB
system.cpu.dtb.flushTlb                             2                       # Number of times complete TLB was flushed
system.cpu.dtb.flushTlbMva                          0                       # Number of times TLB was flushed by MVA
system.cpu.dtb.flushTlbMvaAsid                      0                       # Number of times TLB was flushed by MVA & ASID
system.cpu.dtb.flushTlbAsid                         0                       # Number of times TLB was flushed by ASID
system.cpu.dtb.flushedEntries                       0                       # Number of entries that have been flushed from TLB
system.cpu.dtb.alignFaults                          0                       # Number of TLB faults due to alignment restrictions
system.cpu.dtb.prefetchFaults                       0                       # Number of TLB faults due to prefetch
system.cpu.dtb.domainFaults                         0                       # Number of TLB faults due to domain restrictions
system.cpu.dtb.permsFaults                          0                       # Number of TLB faults due to permissions restrictions
system.cpu.dtb.readAccesses                         0                       # DTB read accesses
system.cpu.dtb.writeAccesses                        0                       # DTB write accesses
system.cpu.dtb.instAccesses                         0                       # ITB inst accesses
system.cpu.dtb.hits                                 0                       # Total TLB (inst and data) hits
system.cpu.dtb.misses                               0                       # Total TLB (inst and data) misses
system.cpu.dtb.accesses                             0                       # Total TLB (inst and data) accesses
system.cpu.dtb.stage2_mmu.stage2_tlb.instHits            0                       # ITB inst hits
system.cpu.dtb.stage2_mmu.stage2_tlb.instMisses            0                       # ITB inst misses
system.cpu.dtb.stage2_mmu.stage2_tlb.readHits            0                       # DTB read hits
system.cpu.dtb.stage2_mmu.stage2_tlb.readMisses            0                       # DTB read misses
system.cpu.dtb.stage2_mmu.stage2_tlb.writeHits            0                       # DTB write hits
system.cpu.dtb.stage2_mmu.stage2_tlb.writeMisses            0                       # DTB write misses
system.cpu.dtb.stage2_mmu.stage2_tlb.inserts            0                       # Number of times an entry is inserted into the TLB
system.cpu.dtb.stage2_mmu.stage2_tlb.flushTlb            0                       # Number of times complete TLB was flushed
system.cpu.dtb.stage2_mmu.stage2_tlb.flushTlbMva            0                       # Number of times TLB was flushed by MVA
system.cpu.dtb.stage2_mmu.stage2_tlb.flushTlbMvaAsid            0                       # Number of times TLB was flushed by MVA & ASID
system.cpu.dtb.stage2_mmu.stage2_tlb.flushTlbAsid            0                       # Number of times TLB was flushed by ASID
system.cpu.dtb.stage2_mmu.stage2_tlb.flushedEntries            0                       # Number of entries that have been flushed from TLB
system.cpu.dtb.stage2_mmu.stage2_tlb.alignFaults            0                       # Number of TLB faults due to alignment restrictions
system.cpu.dtb.stage2_mmu.stage2_tlb.prefetchFaults            0                       # Number of TLB faults due to prefetch
system.cpu.dtb.stage2_mmu.stage2_tlb.domainFaults            0                       # Number of TLB faults due to domain restrictions
system.cpu.dtb.stage2_mmu.stage2_tlb.permsFaults            0                       # Number of TLB faults due to permissions restrictions
system.cpu.dtb.stage2_mmu.stage2_tlb.readAccesses            0                       # DTB read accesses
system.cpu.dtb.stage2_mmu.stage2_tlb.writeAccesses            0                       # DTB write accesses
system.cpu.dtb.stage2_mmu.stage2_tlb.instAccesses            0                       # ITB inst accesses
system.cpu.dtb.stage2_mmu.stage2_tlb.hits            0                       # Total TLB (inst and data) hits
system.cpu.dtb.stage2_mmu.stage2_tlb.misses            0                       # Total TLB (inst and data) misses
system.cpu.dtb.stage2_mmu.stage2_tlb.accesses            0                       # Total TLB (inst and data) accesses
system.cpu.dtb.stage2_mmu.stage2_tlb.walker.walks            0                       # Table walker walks requested
system.cpu.dtb.stage2_mmu.stage2_tlb.walker.requestOrigin_Requested::Data            0                       # Table walker requests started/completed, data/inst
system.cpu.dtb.stage2_mmu.stage2_tlb.walker.requestOrigin_Requested::Inst            0                       # Table walker requests started/completed, data/inst
system.cpu.dtb.stage2_mmu.stage2_tlb.walker.requestOrigin_Requested::total            0                       # Table walker requests started/completed, data/inst
system.cpu.dtb.stage2_mmu.stage2_tlb.walker.requestOrigin_Completed::Data            0                       # Table walker requests started/completed, data/inst
system.cpu.dtb.stage2_mmu.stage2_tlb.walker.requestOrigin_Completed::Inst            0                       # Table walker requests started/completed, data/inst
system.cpu.dtb.stage2_mmu.stage2_tlb.walker.requestOrigin_Completed::total            0                       # Table walker requests started/completed, data/inst
system.cpu.dtb.stage2_mmu.stage2_tlb.walker.requestOrigin::total            0                       # Table walker requests started/completed, data/inst
system.cpu.dtb.stage2_mmu.stage2_tlb.walker.power_state.pwrStateResidencyTicks::UNDEFINED 330407429200                       # Cumulative time (in ticks) in various power states
system.cpu.dtb.walker.walks                         0                       # Table walker walks requested
system.cpu.dtb.walker.requestOrigin_Requested::Data            0                       # Table walker requests started/completed, data/inst
system.cpu.dtb.walker.requestOrigin_Requested::Inst            0                       # Table walker requests started/completed, data/inst
system.cpu.dtb.walker.requestOrigin_Requested::total            0                       # Table walker requests started/completed, data/inst
system.cpu.dtb.walker.requestOrigin_Completed::Data            0                       # Table walker requests started/completed, data/inst
system.cpu.dtb.walker.requestOrigin_Completed::Inst            0                       # Table walker requests started/completed, data/inst
system.cpu.dtb.walker.requestOrigin_Completed::total            0                       # Table walker requests started/completed, data/inst
system.cpu.dtb.walker.requestOrigin::total            0                       # Table walker requests started/completed, data/inst
system.cpu.dtb.walker.power_state.pwrStateResidencyTicks::UNDEFINED 330407429200                       # Cumulative time (in ticks) in various power states
system.cpu.dtb_walker_cache.blocked_cycles::no_mshrs            0                       # number of cycles access was blocked
system.cpu.dtb_walker_cache.blocked_cycles::no_targets            0                       # number of cycles access was blocked
system.cpu.dtb_walker_cache.blocked::no_mshrs            0                       # number of cycles access was blocked
system.cpu.dtb_walker_cache.blocked::no_targets            0                       # number of cycles access was blocked
system.cpu.dtb_walker_cache.avg_blocked_cycles::no_mshrs          nan                       # average number of cycles each access was blocked
system.cpu.dtb_walker_cache.avg_blocked_cycles::no_targets          nan                       # average number of cycles each access was blocked
system.cpu.dtb_walker_cache.replacements            0                       # number of replacements
system.cpu.dtb_walker_cache.power_state.pwrStateResidencyTicks::UNDEFINED 330407429200                       # Cumulative time (in ticks) in various power states
system.cpu.dtb_walker_cache.tags.tagsinuse            0                       # Cycle average of tags in use
system.cpu.dtb_walker_cache.tags.total_refs            0                       # Total number of references to valid blocks.
system.cpu.dtb_walker_cache.tags.sampled_refs            0                       # Sample count of references to valid blocks.
system.cpu.dtb_walker_cache.tags.avg_refs          nan                       # Average number of references to valid blocks.
system.cpu.dtb_walker_cache.tags.warmup_cycle            0                       # Cycle when the warmup percentage was hit.
system.cpu.dtb_walker_cache.tags.tag_accesses            0                       # Number of tag accesses
system.cpu.dtb_walker_cache.tags.data_accesses            0                       # Number of data accesses
system.cpu.dtb_walker_cache.tags.power_state.pwrStateResidencyTicks::UNDEFINED 330407429200                       # Cumulative time (in ticks) in various power states
system.cpu.icache.demand_hits::.cpu.inst           21                       # number of demand (read+write) hits
system.cpu.icache.demand_hits::.switch_cpus.inst       476849                       # number of demand (read+write) hits
system.cpu.icache.demand_hits::total           476870                       # number of demand (read+write) hits
system.cpu.icache.overall_hits::.cpu.inst           21                       # number of overall hits
system.cpu.icache.overall_hits::.switch_cpus.inst       476849                       # number of overall hits
system.cpu.icache.overall_hits::total          476870                       # number of overall hits
system.cpu.icache.demand_misses::.cpu.inst            3                       # number of demand (read+write) misses
system.cpu.icache.demand_misses::.switch_cpus.inst          121                       # number of demand (read+write) misses
system.cpu.icache.demand_misses::total            124                       # number of demand (read+write) misses
system.cpu.icache.overall_misses::.cpu.inst            3                       # number of overall misses
system.cpu.icache.overall_misses::.switch_cpus.inst          121                       # number of overall misses
system.cpu.icache.overall_misses::total           124                       # number of overall misses
system.cpu.icache.demand_miss_latency::.switch_cpus.inst      7386798                       # number of demand (read+write) miss cycles
system.cpu.icache.demand_miss_latency::total      7386798                       # number of demand (read+write) miss cycles
system.cpu.icache.overall_miss_latency::.switch_cpus.inst      7386798                       # number of overall miss cycles
system.cpu.icache.overall_miss_latency::total      7386798                       # number of overall miss cycles
system.cpu.icache.demand_accesses::.cpu.inst           24                       # number of demand (read+write) accesses
system.cpu.icache.demand_accesses::.switch_cpus.inst       476970                       # number of demand (read+write) accesses
system.cpu.icache.demand_accesses::total       476994                       # number of demand (read+write) accesses
system.cpu.icache.overall_accesses::.cpu.inst           24                       # number of overall (read+write) accesses
system.cpu.icache.overall_accesses::.switch_cpus.inst       476970                       # number of overall (read+write) accesses
system.cpu.icache.overall_accesses::total       476994                       # number of overall (read+write) accesses
system.cpu.icache.demand_miss_rate::.cpu.inst     0.125000                       # miss rate for demand accesses
system.cpu.icache.demand_miss_rate::.switch_cpus.inst     0.000254                       # miss rate for demand accesses
system.cpu.icache.demand_miss_rate::total     0.000260                       # miss rate for demand accesses
system.cpu.icache.overall_miss_rate::.cpu.inst     0.125000                       # miss rate for overall accesses
system.cpu.icache.overall_miss_rate::.switch_cpus.inst     0.000254                       # miss rate for overall accesses
system.cpu.icache.overall_miss_rate::total     0.000260                       # miss rate for overall accesses
system.cpu.icache.demand_avg_miss_latency::.switch_cpus.inst 61047.917355                       # average overall miss latency
system.cpu.icache.demand_avg_miss_latency::total 59570.951613                       # average overall miss latency
system.cpu.icache.overall_avg_miss_latency::.switch_cpus.inst 61047.917355                       # average overall miss latency
system.cpu.icache.overall_avg_miss_latency::total 59570.951613                       # average overall miss latency
system.cpu.icache.blocked_cycles::no_mshrs         2881                       # number of cycles access was blocked
system.cpu.icache.blocked_cycles::no_targets           74                       # number of cycles access was blocked
system.cpu.icache.blocked::no_mshrs                27                       # number of cycles access was blocked
system.cpu.icache.blocked::no_targets               1                       # number of cycles access was blocked
system.cpu.icache.avg_blocked_cycles::no_mshrs   106.703704                       # average number of cycles each access was blocked
system.cpu.icache.avg_blocked_cycles::no_targets           74                       # average number of cycles each access was blocked
system.cpu.icache.demand_mshr_hits::.switch_cpus.inst           38                       # number of demand (read+write) MSHR hits
system.cpu.icache.demand_mshr_hits::total           38                       # number of demand (read+write) MSHR hits
system.cpu.icache.overall_mshr_hits::.switch_cpus.inst           38                       # number of overall MSHR hits
system.cpu.icache.overall_mshr_hits::total           38                       # number of overall MSHR hits
system.cpu.icache.demand_mshr_misses::.switch_cpus.inst           83                       # number of demand (read+write) MSHR misses
system.cpu.icache.demand_mshr_misses::total           83                       # number of demand (read+write) MSHR misses
system.cpu.icache.overall_mshr_misses::.switch_cpus.inst           83                       # number of overall MSHR misses
system.cpu.icache.overall_mshr_misses::total           83                       # number of overall MSHR misses
system.cpu.icache.demand_mshr_miss_latency::.switch_cpus.inst      5680798                       # number of demand (read+write) MSHR miss cycles
system.cpu.icache.demand_mshr_miss_latency::total      5680798                       # number of demand (read+write) MSHR miss cycles
system.cpu.icache.overall_mshr_miss_latency::.switch_cpus.inst      5680798                       # number of overall MSHR miss cycles
system.cpu.icache.overall_mshr_miss_latency::total      5680798                       # number of overall MSHR miss cycles
system.cpu.icache.demand_mshr_miss_rate::.switch_cpus.inst     0.000174                       # mshr miss rate for demand accesses
system.cpu.icache.demand_mshr_miss_rate::total     0.000174                       # mshr miss rate for demand accesses
system.cpu.icache.overall_mshr_miss_rate::.switch_cpus.inst     0.000174                       # mshr miss rate for overall accesses
system.cpu.icache.overall_mshr_miss_rate::total     0.000174                       # mshr miss rate for overall accesses
system.cpu.icache.demand_avg_mshr_miss_latency::.switch_cpus.inst 68443.349398                       # average overall mshr miss latency
system.cpu.icache.demand_avg_mshr_miss_latency::total 68443.349398                       # average overall mshr miss latency
system.cpu.icache.overall_avg_mshr_miss_latency::.switch_cpus.inst 68443.349398                       # average overall mshr miss latency
system.cpu.icache.overall_avg_mshr_miss_latency::total 68443.349398                       # average overall mshr miss latency
system.cpu.icache.replacements                      0                       # number of replacements
system.cpu.icache.ReadReq_hits::.cpu.inst           21                       # number of ReadReq hits
system.cpu.icache.ReadReq_hits::.switch_cpus.inst       476849                       # number of ReadReq hits
system.cpu.icache.ReadReq_hits::total          476870                       # number of ReadReq hits
system.cpu.icache.ReadReq_misses::.cpu.inst            3                       # number of ReadReq misses
system.cpu.icache.ReadReq_misses::.switch_cpus.inst          121                       # number of ReadReq misses
system.cpu.icache.ReadReq_misses::total           124                       # number of ReadReq misses
system.cpu.icache.ReadReq_miss_latency::.switch_cpus.inst      7386798                       # number of ReadReq miss cycles
system.cpu.icache.ReadReq_miss_latency::total      7386798                       # number of ReadReq miss cycles
system.cpu.icache.ReadReq_accesses::.cpu.inst           24                       # number of ReadReq accesses(hits+misses)
system.cpu.icache.ReadReq_accesses::.switch_cpus.inst       476970                       # number of ReadReq accesses(hits+misses)
system.cpu.icache.ReadReq_accesses::total       476994                       # number of ReadReq accesses(hits+misses)
system.cpu.icache.ReadReq_miss_rate::.cpu.inst     0.125000                       # miss rate for ReadReq accesses
system.cpu.icache.ReadReq_miss_rate::.switch_cpus.inst     0.000254                       # miss rate for ReadReq accesses
system.cpu.icache.ReadReq_miss_rate::total     0.000260                       # miss rate for ReadReq accesses
system.cpu.icache.ReadReq_avg_miss_latency::.switch_cpus.inst 61047.917355                       # average ReadReq miss latency
system.cpu.icache.ReadReq_avg_miss_latency::total 59570.951613                       # average ReadReq miss latency
system.cpu.icache.ReadReq_mshr_hits::.switch_cpus.inst           38                       # number of ReadReq MSHR hits
system.cpu.icache.ReadReq_mshr_hits::total           38                       # number of ReadReq MSHR hits
system.cpu.icache.ReadReq_mshr_misses::.switch_cpus.inst           83                       # number of ReadReq MSHR misses
system.cpu.icache.ReadReq_mshr_misses::total           83                       # number of ReadReq MSHR misses
system.cpu.icache.ReadReq_mshr_miss_latency::.switch_cpus.inst      5680798                       # number of ReadReq MSHR miss cycles
system.cpu.icache.ReadReq_mshr_miss_latency::total      5680798                       # number of ReadReq MSHR miss cycles
system.cpu.icache.ReadReq_mshr_miss_rate::.switch_cpus.inst     0.000174                       # mshr miss rate for ReadReq accesses
system.cpu.icache.ReadReq_mshr_miss_rate::total     0.000174                       # mshr miss rate for ReadReq accesses
system.cpu.icache.ReadReq_avg_mshr_miss_latency::.switch_cpus.inst 68443.349398                       # average ReadReq mshr miss latency
system.cpu.icache.ReadReq_avg_mshr_miss_latency::total 68443.349398                       # average ReadReq mshr miss latency
system.cpu.icache.power_state.pwrStateResidencyTicks::UNDEFINED 330407429200                       # Cumulative time (in ticks) in various power states
system.cpu.icache.tags.tagsinuse            77.009106                       # Cycle average of tags in use
system.cpu.icache.tags.total_refs                   0                       # Total number of references to valid blocks.
system.cpu.icache.tags.sampled_refs                 0                       # Sample count of references to valid blocks.
system.cpu.icache.tags.avg_refs                   nan                       # Average number of references to valid blocks.
system.cpu.icache.tags.warmup_cycle      329961963600                       # Cycle when the warmup percentage was hit.
system.cpu.icache.tags.occ_blocks::.cpu.inst     2.999982                       # Average occupied blocks per requestor
system.cpu.icache.tags.occ_blocks::.switch_cpus.inst    74.009124                       # Average occupied blocks per requestor
system.cpu.icache.tags.occ_percent::.cpu.inst     0.005859                       # Average percentage of cache occupancy
system.cpu.icache.tags.occ_percent::.switch_cpus.inst     0.144549                       # Average percentage of cache occupancy
system.cpu.icache.tags.occ_percent::total     0.150408                       # Average percentage of cache occupancy
system.cpu.icache.tags.occ_task_id_blocks::1024           86                       # Occupied blocks per task id
system.cpu.icache.tags.age_task_id_blocks_1024::0            1                       # Occupied blocks per task id
system.cpu.icache.tags.age_task_id_blocks_1024::1            6                       # Occupied blocks per task id
system.cpu.icache.tags.age_task_id_blocks_1024::2           79                       # Occupied blocks per task id
system.cpu.icache.tags.occ_task_id_percent::1024     0.167969                       # Percentage of cache occupancy per task id
system.cpu.icache.tags.tag_accesses           3816038                       # Number of tag accesses
system.cpu.icache.tags.data_accesses          3816038                       # Number of data accesses
system.cpu.icache.tags.power_state.pwrStateResidencyTicks::UNDEFINED 330407429200                       # Cumulative time (in ticks) in various power states
system.cpu.itb.instHits                             0                       # ITB inst hits
system.cpu.itb.instMisses                           0                       # ITB inst misses
system.cpu.itb.readHits                             0                       # DTB read hits
system.cpu.itb.readMisses                           0                       # DTB read misses
system.cpu.itb.writeHits                            0                       # DTB write hits
system.cpu.itb.writeMisses                          0                       # DTB write misses
system.cpu.itb.inserts                              0                       # Number of times an entry is inserted into the TLB
system.cpu.itb.flushTlb                             2                       # Number of times complete TLB was flushed
system.cpu.itb.flushTlbMva                          0                       # Number of times TLB was flushed by MVA
system.cpu.itb.flushTlbMvaAsid                      0                       # Number of times TLB was flushed by MVA & ASID
system.cpu.itb.flushTlbAsid                         0                       # Number of times TLB was flushed by ASID
system.cpu.itb.flushedEntries                       0                       # Number of entries that have been flushed from TLB
system.cpu.itb.alignFaults                          0                       # Number of TLB faults due to alignment restrictions
system.cpu.itb.prefetchFaults                       0                       # Number of TLB faults due to prefetch
system.cpu.itb.domainFaults                         0                       # Number of TLB faults due to domain restrictions
system.cpu.itb.permsFaults                          0                       # Number of TLB faults due to permissions restrictions
system.cpu.itb.readAccesses                         0                       # DTB read accesses
system.cpu.itb.writeAccesses                        0                       # DTB write accesses
system.cpu.itb.instAccesses                         0                       # ITB inst accesses
system.cpu.itb.hits                                 0                       # Total TLB (inst and data) hits
system.cpu.itb.misses                               0                       # Total TLB (inst and data) misses
system.cpu.itb.accesses                             0                       # Total TLB (inst and data) accesses
system.cpu.itb.stage2_mmu.stage2_tlb.instHits            0                       # ITB inst hits
system.cpu.itb.stage2_mmu.stage2_tlb.instMisses            0                       # ITB inst misses
system.cpu.itb.stage2_mmu.stage2_tlb.readHits            0                       # DTB read hits
system.cpu.itb.stage2_mmu.stage2_tlb.readMisses            0                       # DTB read misses
system.cpu.itb.stage2_mmu.stage2_tlb.writeHits            0                       # DTB write hits
system.cpu.itb.stage2_mmu.stage2_tlb.writeMisses            0                       # DTB write misses
system.cpu.itb.stage2_mmu.stage2_tlb.inserts            0                       # Number of times an entry is inserted into the TLB
system.cpu.itb.stage2_mmu.stage2_tlb.flushTlb            0                       # Number of times complete TLB was flushed
system.cpu.itb.stage2_mmu.stage2_tlb.flushTlbMva            0                       # Number of times TLB was flushed by MVA
system.cpu.itb.stage2_mmu.stage2_tlb.flushTlbMvaAsid            0                       # Number of times TLB was flushed by MVA & ASID
system.cpu.itb.stage2_mmu.stage2_tlb.flushTlbAsid            0                       # Number of times TLB was flushed by ASID
system.cpu.itb.stage2_mmu.stage2_tlb.flushedEntries            0                       # Number of entries that have been flushed from TLB
system.cpu.itb.stage2_mmu.stage2_tlb.alignFaults            0                       # Number of TLB faults due to alignment restrictions
system.cpu.itb.stage2_mmu.stage2_tlb.prefetchFaults            0                       # Number of TLB faults due to prefetch
system.cpu.itb.stage2_mmu.stage2_tlb.domainFaults            0                       # Number of TLB faults due to domain restrictions
system.cpu.itb.stage2_mmu.stage2_tlb.permsFaults            0                       # Number of TLB faults due to permissions restrictions
system.cpu.itb.stage2_mmu.stage2_tlb.readAccesses            0                       # DTB read accesses
system.cpu.itb.stage2_mmu.stage2_tlb.writeAccesses            0                       # DTB write accesses
system.cpu.itb.stage2_mmu.stage2_tlb.instAccesses            0                       # ITB inst accesses
system.cpu.itb.stage2_mmu.stage2_tlb.hits            0                       # Total TLB (inst and data) hits
system.cpu.itb.stage2_mmu.stage2_tlb.misses            0                       # Total TLB (inst and data) misses
system.cpu.itb.stage2_mmu.stage2_tlb.accesses            0                       # Total TLB (inst and data) accesses
system.cpu.itb.stage2_mmu.stage2_tlb.walker.walks            0                       # Table walker walks requested
system.cpu.itb.stage2_mmu.stage2_tlb.walker.requestOrigin_Requested::Data            0                       # Table walker requests started/completed, data/inst
system.cpu.itb.stage2_mmu.stage2_tlb.walker.requestOrigin_Requested::Inst            0                       # Table walker requests started/completed, data/inst
system.cpu.itb.stage2_mmu.stage2_tlb.walker.requestOrigin_Requested::total            0                       # Table walker requests started/completed, data/inst
system.cpu.itb.stage2_mmu.stage2_tlb.walker.requestOrigin_Completed::Data            0                       # Table walker requests started/completed, data/inst
system.cpu.itb.stage2_mmu.stage2_tlb.walker.requestOrigin_Completed::Inst            0                       # Table walker requests started/completed, data/inst
system.cpu.itb.stage2_mmu.stage2_tlb.walker.requestOrigin_Completed::total            0                       # Table walker requests started/completed, data/inst
system.cpu.itb.stage2_mmu.stage2_tlb.walker.requestOrigin::total            0                       # Table walker requests started/completed, data/inst
system.cpu.itb.stage2_mmu.stage2_tlb.walker.power_state.pwrStateResidencyTicks::UNDEFINED 330407429200                       # Cumulative time (in ticks) in various power states
system.cpu.itb.walker.walks                         0                       # Table walker walks requested
system.cpu.itb.walker.requestOrigin_Requested::Data            0                       # Table walker requests started/completed, data/inst
system.cpu.itb.walker.requestOrigin_Requested::Inst            0                       # Table walker requests started/completed, data/inst
system.cpu.itb.walker.requestOrigin_Requested::total            0                       # Table walker requests started/completed, data/inst
system.cpu.itb.walker.requestOrigin_Completed::Data            0                       # Table walker requests started/completed, data/inst
system.cpu.itb.walker.requestOrigin_Completed::Inst            0                       # Table walker requests started/completed, data/inst
[...]
system.switch_cpus.fetch.insts               29164383                       # Number of instructions fetch has processed
system.switch_cpus.fetch.branches             5949253                       # Number of branches that fetch encountered
system.switch_cpus.fetch.predictedBranches      3927383                       # Number of branches that fetch has predicted taken
system.switch_cpus.fetch.cycles              10267897                       # Number of cycles fetch has run and was not squashing or blocked
system.switch_cpus.fetch.squashCycles          362140                       # Number of cycles fetch has spent squashing
system.switch_cpus.fetch.miscStallCycles            8                       # Number of cycles fetch has spent waiting on interrupts,or bad addresses, or out of MSHRs
system.switch_cpus.fetch.pendingTrapStallCycles           14                       # Number of stall cycles due to pending traps
system.switch_cpus.fetch.icacheWaitRetryStallCycles           17                       # Number of stall cycles due to full MSHR
system.switch_cpus.fetch.cacheLines           4626014                       # Number of cache lines fetched
system.switch_cpus.fetch.icacheSquashes             4                       # Number of outstanding Icache misses that were squashed
system.switch_cpus.fetch.nisnDist::samples     10604404                       # Number of instructions fetched each cycle (Total)
system.switch_cpus.fetch.nisnDist::mean      3.088717                       # Number of instructions fetched each cycle (Total)
system.switch_cpus.fetch.nisnDist::stdev     3.028830                       # Number of instructions fetched each cycle (Total)
system.switch_cpus.fetch.nisnDist::underflows            0      0.00%      0.00% # Number of instructions fetched each cycle (Total)
system.switch_cpus.fetch.nisnDist::0          3711271     35.00%     35.00% # Number of instructions fetched each cycle (Total)
system.switch_cpus.fetch.nisnDist::1           436217      4.11%     39.11% # Number of instructions fetched each cycle (Total)
system.switch_cpus.fetch.nisnDist::2          1631068     15.38%     54.49% # Number of instructions fetched each cycle (Total)
system.switch_cpus.fetch.nisnDist::3           523507      4.94%     59.43% # Number of instructions fetched each cycle (Total)
system.switch_cpus.fetch.nisnDist::4           809143      7.63%     67.06% # Number of instructions fetched each cycle (Total)
system.switch_cpus.fetch.nisnDist::5           773624      7.30%     74.35% # Number of instructions fetched each cycle (Total)
system.switch_cpus.fetch.nisnDist::6           540663      5.10%     79.45% # Number of instructions fetched each cycle (Total)
system.switch_cpus.fetch.nisnDist::7           294834      2.78%     82.23% # Number of instructions fetched each cycle (Total)
system.switch_cpus.fetch.nisnDist::8          1884077     17.77%    100.00% # Number of instructions fetched each cycle (Total)
system.switch_cpus.fetch.nisnDist::overflows            0      0.00%    100.00% # Number of instructions fetched each cycle (Total)
system.switch_cpus.fetch.nisnDist::min_value            0                       # Number of instructions fetched each cycle (Total)
system.switch_cpus.fetch.nisnDist::max_value            8                       # Number of instructions fetched each cycle (Total)
system.switch_cpus.fetch.nisnDist::total     10604404                       # Number of instructions fetched each cycle (Total)
system.switch_cpus.fetch.branchRate          0.561015                       # Number of branch fetches per cycle
system.switch_cpus.fetch.rate                2.750206                       # Number of inst fetches per cycle
system.switch_cpus.itb.instHits                     0                       # ITB inst hits
system.switch_cpus.itb.instMisses                   0                       # ITB inst misses
system.switch_cpus.itb.readHits                     0                       # DTB read hits
system.switch_cpus.itb.readMisses                   0                       # DTB read misses
system.switch_cpus.itb.writeHits                    0                       # DTB write hits
system.switch_cpus.itb.writeMisses                  0                       # DTB write misses
system.switch_cpus.itb.inserts                      0                       # Number of times an entry is inserted into the TLB
system.switch_cpus.itb.flushTlb                     0                       # Number of times complete TLB was flushed
system.switch_cpus.itb.flushTlbMva                  0                       # Number of times TLB was flushed by MVA
system.switch_cpus.itb.flushTlbMvaAsid              0                       # Number of times TLB was flushed by MVA & ASID
system.switch_cpus.itb.flushTlbAsid                 0                       # Number of times TLB was flushed by ASID
system.switch_cpus.itb.flushedEntries               0                       # Number of entries that have been flushed from TLB
system.switch_cpus.itb.alignFaults                  0                       # Number of TLB faults due to alignment restrictions
system.switch_cpus.itb.prefetchFaults               0                       # Number of TLB faults due to prefetch
system.switch_cpus.itb.domainFaults                 0                       # Number of TLB faults due to domain restrictions
system.switch_cpus.itb.permsFaults                  0                       # Number of TLB faults due to permissions restrictions
system.switch_cpus.itb.readAccesses                 0                       # DTB read accesses
system.switch_cpus.itb.writeAccesses                0                       # DTB write accesses
system.switch_cpus.itb.instAccesses                 0                       # ITB inst accesses
system.switch_cpus.itb.hits                         0                       # Total TLB (inst and data) hits
system.switch_cpus.itb.misses                       0                       # Total TLB (inst and data) misses
system.switch_cpus.itb.accesses                     0                       # Total TLB (inst and data) accesses
system.switch_cpus.itb.stage2_mmu.stage2_tlb.instHits            0                       # ITB inst hits
system.switch_cpus.itb.stage2_mmu.stage2_tlb.instMisses            0                       # ITB inst misses
system.switch_cpus.itb.stage2_mmu.stage2_tlb.readHits            0                       # DTB read hits
system.switch_cpus.itb.stage2_mmu.stage2_tlb.readMisses            0                       # DTB read misses
system.switch_cpus.itb.stage2_mmu.stage2_tlb.writeHits            0                       # DTB write hits
system.switch_cpus.itb.stage2_mmu.stage2_tlb.writeMisses            0                       # DTB write misses
system.switch_cpus.itb.stage2_mmu.stage2_tlb.inserts            0                       # Number of times an entry is inserted into the TLB
system.switch_cpus.itb.stage2_mmu.stage2_tlb.flushTlb            0                       # Number of times complete TLB was flushed
system.switch_cpus.itb.stage2_mmu.stage2_tlb.flushTlbMva            0                       # Number of times TLB was flushed by MVA
system.switch_cpus.itb.stage2_mmu.stage2_tlb.flushTlbMvaAsid            0                       # Number of times TLB was flushed by MVA & ASID
system.switch_cpus.itb.stage2_mmu.stage2_tlb.flushTlbAsid            0                       # Number of times TLB was flushed by ASID
system.switch_cpus.itb.stage2_mmu.stage2_tlb.flushedEntries            0                       # Number of entries that have been flushed from TLB
system.switch_cpus.itb.stage2_mmu.stage2_tlb.alignFaults            0                       # Number of TLB faults due to alignment restrictions
system.switch_cpus.itb.stage2_mmu.stage2_tlb.prefetchFaults            0                       # Number of TLB faults due to prefetch
system.switch_cpus.itb.stage2_mmu.stage2_tlb.domainFaults            0                       # Number of TLB faults due to domain restrictions
system.switch_cpus.itb.stage2_mmu.stage2_tlb.permsFaults            0                       # Number of TLB faults due to permissions restrictions
system.switch_cpus.itb.stage2_mmu.stage2_tlb.readAccesses            0                       # DTB read accesses
system.switch_cpus.itb.stage2_mmu.stage2_tlb.writeAccesses            0                       # DTB write accesses
system.switch_cpus.itb.stage2_mmu.stage2_tlb.instAccesses            0                       # ITB inst accesses
system.switch_cpus.itb.stage2_mmu.stage2_tlb.hits            0                       # Total TLB (inst and data) hits
system.switch_cpus.itb.stage2_mmu.stage2_tlb.misses            0                       # Total TLB (inst and data) misses
system.switch_cpus.itb.stage2_mmu.stage2_tlb.accesses            0                       # Total TLB (inst and data) accesses
system.switch_cpus.itb.stage2_mmu.stage2_tlb.walker.walks            0                       # Table walker walks requested
system.switch_cpus.itb.stage2_mmu.stage2_tlb.walker.requestOrigin_Requested::Data            0                       # Table walker requests started/completed, data/inst
system.switch_cpus.itb.stage2_mmu.stage2_tlb.walker.requestOrigin_Requested::Inst            0                       # Table walker requests started/completed, data/inst
system.switch_cpus.itb.stage2_mmu.stage2_tlb.walker.requestOrigin_Requested::total            0                       # Table walker requests started/completed, data/inst
system.switch_cpus.itb.stage2_mmu.stage2_tlb.walker.requestOrigin_Completed::Data            0                       # Table walker requests started/completed, data/inst
system.switch_cpus.itb.stage2_mmu.stage2_tlb.walker.requestOrigin_Completed::Inst            0                       # Table walker requests started/completed, data/inst
system.switch_cpus.itb.stage2_mmu.stage2_tlb.walker.requestOrigin_Completed::total            0                       # Table walker requests started/completed, data/inst
system.switch_cpus.itb.stage2_mmu.stage2_tlb.walker.requestOrigin::total            0                       # Table walker requests started/completed, data/inst
system.switch_cpus.itb.stage2_mmu.stage2_tlb.walker.power_state.pwrStateResidencyTicks::UNDEFINED   4241774800                       # Cumulative time (in ticks) in various power states
system.switch_cpus.itb.walker.walks                 0                       # Table walker walks requested
system.switch_cpus.itb.walker.requestOrigin_Requested::Data            0                       # Table walker requests started/completed, data/inst
system.switch_cpus.itb.walker.requestOrigin_Requested::Inst            0                       # Table walker requests started/completed, data/inst
system.switch_cpus.itb.walker.requestOrigin_Requested::total            0                       # Table walker requests started/completed, data/inst
system.switch_cpus.itb.walker.requestOrigin_Completed::Data            0                       # Table walker requests started/completed, data/inst
system.switch_cpus.itb.walker.requestOrigin_Completed::Inst            0                       # Table walker requests started/completed, data/inst
system.switch_cpus.itb.walker.requestOrigin_Completed::total            0                       # Table walker requests started/completed, data/inst
system.switch_cpus.itb.walker.requestOrigin::total            0                       # Table walker requests started/completed, data/inst
system.switch_cpus.itb.walker.power_state.pwrStateResidencyTicks::UNDEFINED   4241774800                       # Cumulative time (in ticks) in various power states
system.switch_cpus.lsq0.forwLoads             1385223                       # Number of loads that had data forwarded from stores
system.switch_cpus.lsq0.squashedLoads         3508132                       # Number of loads squashed
system.switch_cpus.lsq0.ignoredResponses            7                       # Number of memory responses ignored because the instruction is squashed
system.switch_cpus.lsq0.memOrderViolation          969                       # Number of memory ordering violations
system.switch_cpus.lsq0.squashedStores        2174013                       # Number of stores squashed
system.switch_cpus.lsq0.rescheduledLoads        18449                       # Number of loads that were rescheduled
system.switch_cpus.lsq0.blockedByCache              8                       # Number of times an access to memory failed due to the cache being blocked
system.switch_cpus.power_state.pwrStateResidencyTicks::OFF   4241774800                       # Cumulative time (in ticks) in various power states
system.switch_cpus.rename.squashCycles         181070                       # Number of cycles rename is squashing
system.switch_cpus.rename.idleCycles          1329353                       # Number of cycles rename is idle
system.switch_cpus.rename.blockCycles         3984586                       # Number of cycles rename is blocking
system.switch_cpus.rename.serializeStallCycles         7176                       # count of cycles rename stalledfor serializing inst
system.switch_cpus.rename.runCycles           4488800                       # Number of cycles rename is running
system.switch_cpus.rename.unblockCycles        613419                       # Number of cycles rename is unblocking
system.switch_cpus.rename.renamedInsts       27250780                       # Number of instructions processed by rename
system.switch_cpus.rename.squashedInsts        692667                       # Number of squashed instructions processed by rename
system.switch_cpus.rename.ROBFullEvents            18                       # Number of times rename has blocked due to ROB full
system.switch_cpus.rename.IQFullEvents         173192                       # Number of times rename has blocked due to IQ full
system.switch_cpus.rename.SQFullEvents           2894                       # Number of times rename has blocked due to SQ full
system.switch_cpus.rename.fullRegistersEvents       366520                       # Number of times there has been no free registers
system.switch_cpus.rename.renamedOperands     28342607                       # Number of destination operands rename has renamed
system.switch_cpus.rename.lookups            40234348                       # Number of register rename lookups that rename has made
system.switch_cpus.rename.intLookups         30732893                       # Number of integer rename lookups
system.switch_cpus.rename.committedMaps      11768470                       # Number of HB maps that are committed
system.switch_cpus.rename.undoneMaps         16574115                       # Number of HB maps that are undone due to squashing
system.switch_cpus.rename.serializing             548                       # count of serializing insts renamed
system.switch_cpus.rename.tempSerializing            4                       # count of temporary serializing insts renamed
system.switch_cpus.rename.skidInsts           1906736                       # count of insts added to the skid buffer
system.switch_cpus.rob.reads                 30633445                       # The number of ROB reads
system.switch_cpus.rob.writes                55469937                       # The number of ROB writes
system.switch_cpus.thread_0.numInsts          9999999                       # Number of Instructions committed
system.switch_cpus.thread_0.numOps           11450145                       # Number of Ops committed
system.switch_cpus.thread_0.numMemRefs              0                       # Number of Memory References
system.tol2bus.trans_dist::ReadResp              2227                       # Transaction distribution
system.tol2bus.trans_dist::WritebackDirty         2586                       # Transaction distribution
system.tol2bus.trans_dist::WritebackClean           49                       # Transaction distribution
system.tol2bus.trans_dist::HardPFReq              227                       # Transaction distribution
system.tol2bus.trans_dist::ReadExReq              412                       # Transaction distribution
system.tol2bus.trans_dist::ReadExResp             412                       # Transaction distribution
system.tol2bus.trans_dist::ReadCleanReq             4                       # Transaction distribution
system.tol2bus.trans_dist::ReadSharedReq         2223                       # Transaction distribution
system.tol2bus.pkt_count_system.cpu.icache.mem_side_port::system.l2.cpu_side_port            7                       # Packet count per connected requestor and responder (bytes)
system.tol2bus.pkt_count_system.cpu.dcache.mem_side_port::system.l2.cpu_side_port         7905                       # Packet count per connected requestor and responder (bytes)
system.tol2bus.pkt_count::total                  7912                       # Packet count per connected requestor and responder (bytes)
system.tol2bus.pkt_size_system.cpu.icache.mem_side_port::system.l2.cpu_side_port          384                       # Cumulative packet size per connected requestor and responder (bytes)
system.tol2bus.pkt_size_system.cpu.dcache.mem_side_port::system.l2.cpu_side_port       674560                       # Cumulative packet size per connected requestor and responder (bytes)
system.tol2bus.pkt_size::total                 674944                       # Cumulative packet size per connected requestor and responder (bytes)
system.tol2bus.snoops                             228                       # Total snoops (count)
system.tol2bus.snoopTraffic                       128                       # Total snoop traffic (bytes)
system.tol2bus.snoop_fanout::samples             2866                       # Request fanout histogram
system.tol2bus.snoop_fanout::mean            0.005583                       # Request fanout histogram
system.tol2bus.snoop_fanout::stdev           0.074522                       # Request fanout histogram
system.tol2bus.snoop_fanout::underflows             0      0.00%      0.00% # Request fanout histogram
system.tol2bus.snoop_fanout::0                   2850     99.44%     99.44% # Request fanout histogram
system.tol2bus.snoop_fanout::1                     16      0.56%    100.00% # Request fanout histogram
system.tol2bus.snoop_fanout::2                      0      0.00%    100.00% # Request fanout histogram
system.tol2bus.snoop_fanout::3                      0      0.00%    100.00% # Request fanout histogram
system.tol2bus.snoop_fanout::4                      0      0.00%    100.00% # Request fanout histogram
system.tol2bus.snoop_fanout::overflows              0      0.00%    100.00% # Request fanout histogram
system.tol2bus.snoop_fanout::min_value              0                       # Request fanout histogram
system.tol2bus.snoop_fanout::max_value              1                       # Request fanout histogram
system.tol2bus.snoop_fanout::total               2866                       # Request fanout histogram
system.tol2bus.power_state.pwrStateResidencyTicks::UNDEFINED   4241774800                       # Cumulative time (in ticks) in various power states
system.tol2bus.reqLayer0.occupancy            6325600                       # Layer occupancy (ticks)
system.tol2bus.reqLayer0.utilization              0.1                       # Layer utilization (%)
system.tol2bus.respLayer0.occupancy              8000                       # Layer occupancy (ticks)
system.tol2bus.respLayer0.utilization             0.0                       # Layer utilization (%)
system.tol2bus.respLayer1.occupancy           5270000                       # Layer occupancy (ticks)
system.tol2bus.respLayer1.utilization             0.1                       # Layer utilization (%)
system.voltage_domain.voltage                       1                       # Voltage in Volts

---------- End Simulation Statistics   ----------
