
---------- Begin Simulation Statistics ----------
final_tick                               6461673545600                       # Number of ticks from beginning of simulation (restored from checkpoints and never reset)
host_inst_rate                                 186507                       # Simulator instruction rate (inst/s)
host_mem_usage                               17023184                       # Number of bytes of host memory used
host_op_rate                                   192213                       # Simulator op (including micro ops) rate (op/s)
host_seconds                                     5.36                       # Real time elapsed on the host
host_tick_rate                              143674114                       # Simulator tick rate (ticks/s)
sim_freq                                 1000000000000                       # Frequency of simulated ticks
sim_insts                                     1000026                       # Number of instructions simulated
sim_ops                                       1030631                       # Number of ops (including micro ops) simulated
sim_seconds                                  0.000770                       # Number of seconds simulated
sim_ticks                                   770369200                       # Number of ticks simulated
system.cpu.Branches                                 6                       # Number of branches fetched
system.cpu.committedInsts                          24                       # Number of instructions committed
system.cpu.committedOps                            25                       # Number of ops (including micro ops) committed
system.cpu.idle_fraction                            0                       # Percentage of idle cycles
system.cpu.not_idle_fraction                        1                       # Percentage of non-idle cycles
system.cpu.numCycles                               25                       # number of cpu cycles simulated
system.cpu.numWorkItemsCompleted                    0                       # number of work items this cpu completed
system.cpu.numWorkItemsStarted                      0                       # number of work items this cpu started
system.cpu.num_busy_cycles                         25                       # Number of busy cycles
system.cpu.num_cc_register_reads                   24                       # number of times the CC registers were read
system.cpu.num_cc_register_writes                  18                       # number of times the CC registers were written
system.cpu.num_conditional_control_insts            6                       # number of instructions that are conditional controls
system.cpu.num_fp_alu_accesses                      0                       # Number of float alu accesses
system.cpu.num_fp_insts                             0                       # number of float instructions
system.cpu.num_fp_register_reads                    0                       # number of times the floating registers were read
system.cpu.num_fp_register_writes                   0                       # number of times the floating registers were written
system.cpu.num_func_calls                           0                       # number of times a function call or return occured
system.cpu.num_idle_cycles                          0                       # Number of idle cycles
system.cpu.num_int_alu_accesses                    19                       # Number of integer alu accesses
system.cpu.num_int_insts                           19                       # number of integer instructions
system.cpu.num_int_register_reads                  25                       # number of times the integer registers were read
system.cpu.num_int_register_writes                 18                       # number of times the integer registers were written
system.cpu.num_load_insts                           7                       # Number of load instructions
system.cpu.num_mem_refs                             7                       # number of memory refs
system.cpu.num_store_insts                          0                       # Number of store instructions
system.cpu.num_vec_alu_accesses                     0                       # Number of vector alu accesses
system.cpu.num_vec_insts                            0                       # number of vector instructions
system.cpu.num_vec_register_reads                   0                       # number of times the vector registers were read
system.cpu.num_vec_register_writes                  0                       # number of times the vector registers were written
system.cpu.op_class::No_OpClass                     0      0.00%      0.00% # Class of executed instruction
system.cpu.op_class::IntAlu                        18     72.00%     72.00% # Class of executed instruction
system.cpu.op_class::IntMult                        0      0.00%     72.00% # Class of executed instruction
system.cpu.op_class::IntDiv                         0      0.00%     72.00% # Class of executed instruction
system.cpu.op_class::FloatAdd                       0      0.00%     72.00% # Class of executed instruction
system.cpu.op_class::FloatCmp                       0      0.00%     72.00% # Class of executed instruction
system.cpu.op_class::FloatCvt                       0      0.00%     72.00% # Class of executed instruction
system.cpu.op_class::FloatMult                      0      0.00%     72.00% # Class of executed instruction
system.cpu.op_class::FloatMultAcc                   0      0.00%     72.00% # Class of executed instruction
system.cpu.op_class::FloatDiv                       0      0.00%     72.00% # Class of executed instruction
system.cpu.op_class::FloatMisc                      0      0.00%     72.00% # Class of executed instruction
system.cpu.op_class::FloatSqrt                      0      0.00%     72.00% # Class of executed instruction
system.cpu.op_class::SimdAdd                        0      0.00%     72.00% # Class of executed instruction
system.cpu.op_class::SimdAddAcc                     0      0.00%     72.00% # Class of executed instruction
system.cpu.op_class::SimdAlu                        0      0.00%     72.00% # Class of executed instruction
system.cpu.op_class::SimdCmp                        0      0.00%     72.00% # Class of executed instruction
system.cpu.op_class::SimdCvt                        0      0.00%     72.00% # Class of executed instruction
system.cpu.op_class::SimdMisc                       0      0.00%     72.00% # Class of executed instruction
system.cpu.op_class::SimdMult                       0      0.00%     72.00% # Class of executed instruction
system.cpu.op_class::SimdMultAcc                    0      0.00%     72.00% # Class of executed instruction
system.cpu.op_class::SimdShift                      0      0.00%     72.00% # Class of executed instruction
system.cpu.op_class::SimdShiftAcc                   0      0.00%     72.00% # Class of executed instruction
system.cpu.op_class::SimdDiv                        0      0.00%     72.00% # Class of executed instruction
system.cpu.op_class::SimdSqrt                       0      0.00%     72.00% # Class of executed instruction
system.cpu.op_class::SimdFloatAdd                   0      0.00%     72.00% # Class of executed instruction
system.cpu.op_class::SimdFloatAlu                   0      0.00%     72.00% # Class of executed instruction
system.cpu.op_class::SimdFloatCmp                   0      0.00%     72.00% # Class of executed instruction
system.cpu.op_class::SimdFloatCvt                   0      0.00%     72.00% # Class of executed instruction
system.cpu.op_class::SimdFloatDiv                   0      0.00%     72.00% # Class of executed instruction
system.cpu.op_class::SimdFloatMisc                  0      0.00%     72.00% # Class of executed instruction
system.cpu.op_class::SimdFloatMult                  0      0.00%     72.00% # Class of executed instruction
system.cpu.op_class::SimdFloatMultAcc               0      0.00%     72.00% # Class of executed instruction
system.cpu.op_class::SimdFloatSqrt                  0      0.00%     72.00% # Class of executed instruction
system.cpu.op_class::SimdReduceAdd                  0      0.00%     72.00% # Class of executed instruction
system.cpu.op_class::SimdReduceAlu                  0      0.00%     72.00% # Class of executed instruction
system.cpu.op_class::SimdReduceCmp                  0      0.00%     72.00% # Class of executed instruction
system.cpu.op_class::SimdFloatReduceAdd             0      0.00%     72.00% # Class of executed instruction
system.cpu.op_class::SimdFloatReduceCmp             0      0.00%     72.00% # Class of executed instruction
system.cpu.op_class::SimdAes                        0      0.00%     72.00% # Class of executed instruction
system.cpu.op_class::SimdAesMix                     0      0.00%     72.00% # Class of executed instruction
system.cpu.op_class::SimdSha1Hash                   0      0.00%     72.00% # Class of executed instruction
system.cpu.op_class::SimdSha1Hash2                  0      0.00%     72.00% # Class of executed instruction
system.cpu.op_class::SimdSha256Hash                 0      0.00%     72.00% # Class of executed instruction
system.cpu.op_class::SimdSha256Hash2                0      0.00%     72.00% # Class of executed instruction
system.cpu.op_class::SimdShaSigma2                  0      0.00%     72.00% # Class of executed instruction
system.cpu.op_class::SimdShaSigma3                  0      0.00%     72.00% # Class of executed instruction
system.cpu.op_class::SimdPredAlu                    0      0.00%     72.00% # Class of executed instruction
system.cpu.op_class::MemRead                        7     28.00%    100.00% # Class of executed instruction
system.cpu.op_class::MemWrite                       0      0.00%    100.00% # Class of executed instruction
system.cpu.op_class::FloatMemRead                   0      0.00%    100.00% # Class of executed instruction
system.cpu.op_class::FloatMemWrite                  0      0.00%    100.00% # Class of executed instruction
system.cpu.op_class::IprAccess                      0      0.00%    100.00% # Class of executed instruction
system.cpu.op_class::InstPrefetch                   0      0.00%    100.00% # Class of executed instruction
system.cpu.op_class::total                         25                       # Class of executed instruction
system.cpu.workload.numSyscalls                     0                       # Number of system calls
system.membus.snoop_filter.hit_multi_requests            0                       # Number of requests hitting in the snoop filter with multiple (>1) holders of the requested data.
system.membus.snoop_filter.hit_multi_snoops            0                       # Number of snoops hitting in the snoop filter with multiple (>1) holders of the requested data.
system.membus.snoop_filter.hit_single_requests        17330                       # Number of requests hitting in the snoop filter with a single holder of the requested data.
system.membus.snoop_filter.hit_single_snoops            0                       # Number of snoops hitting in the snoop filter with a single holder of the requested data.
system.membus.snoop_filter.tot_requests         43044                       # Total number of requests made to the snoop filter.
system.membus.snoop_filter.tot_snoops               0                       # Total number of snoops made to the snoop filter.
system.switch_cpus.cc_regfile_reads            924693                       # number of cc regfile reads
system.switch_cpus.cc_regfile_writes           754155                       # number of cc regfile writes
system.switch_cpus.committedInsts             1000002                       # Number of Instructions Simulated
system.switch_cpus.committedOps               1030606                       # Number of Ops (including micro ops) Simulated
system.switch_cpus.cpi                       1.925894                       # CPI: Cycles Per Instruction
system.switch_cpus.cpi_total                 1.925894                       # CPI: Total CPI of All Threads
system.switch_cpus.idleCycles                    2937                       # Total number of cycles that the CPU has spent unscheduled due to idling
system.switch_cpus.iew.branchMispredicts        24978                       # Number of branch mispredicts detected at execute
system.switch_cpus.iew.exec_branches           417126                       # Number of branches executed
system.switch_cpus.iew.exec_nop                  2803                       # number of nop insts executed
system.switch_cpus.iew.exec_rate             0.888380                       # Inst execution rate
system.switch_cpus.iew.exec_refs               623520                       # number of memory reference insts executed
system.switch_cpus.iew.exec_stores              89301                       # Number of stores executed
system.switch_cpus.iew.exec_swp                     0                       # number of swp insts executed
system.switch_cpus.iew.iewBlockCycles          389070                       # Number of cycles IEW is blocking
system.switch_cpus.iew.iewDispLoadInsts        650865                       # Number of dispatched load instructions
system.switch_cpus.iew.iewDispNonSpecInsts            0                       # Number of dispatched non-speculative instructions
system.switch_cpus.iew.iewDispSquashedInsts            0                       # Number of squashed instructions skipped by dispatch
system.switch_cpus.iew.iewDispStoreInsts       125323                       # Number of dispatched store instructions
system.switch_cpus.iew.iewDispatchedInsts      2309854                       # Number of instructions dispatched to IQ
system.switch_cpus.iew.iewExecLoadInsts        534219                       # Number of load instructions executed
system.switch_cpus.iew.iewExecSquashedInsts        34952                       # Number of squashed instructions skipped in execute
system.switch_cpus.iew.iewExecutedInsts       1710929                       # Number of executed instructions
system.switch_cpus.iew.iewIQFullEvents            522                       # Number of times the IQ has become full, causing a stall
system.switch_cpus.iew.iewIdleCycles                0                       # Number of cycles IEW is idle
system.switch_cpus.iew.iewLSQFullEvents             0                       # Number of times the LSQ has become full, causing a stall
system.switch_cpus.iew.iewSquashCycles          22978                       # Number of cycles IEW is squashing
system.switch_cpus.iew.iewUnblockCycles           935                       # Number of cycles IEW is unblocking
system.switch_cpus.iew.memOrderViolationEvents           59                       # Number of memory order violations
system.switch_cpus.iew.predictedNotTakenIncorrect        15008                       # Number of branches that were predicted not taken incorrectly
system.switch_cpus.iew.predictedTakenIncorrect         9970                       # Number of branches that were predicted taken incorrectly
system.switch_cpus.iew.wb_consumers           2018120                       # num instructions consuming a value
system.switch_cpus.iew.wb_count               1582710                       # cumulative count of insts written-back
system.switch_cpus.iew.wb_fanout             0.511160                       # average fanout of values written-back
system.switch_cpus.iew.wb_producers           1031582                       # num instructions producing a value
system.switch_cpus.iew.wb_rate               0.821804                       # insts written-back per cycle
system.switch_cpus.iew.wb_sent                1591641                       # cumulative count of insts sent to commit
system.switch_cpus.int_regfile_reads          1844858                       # number of integer regfile reads
system.switch_cpus.int_regfile_writes         1142724                       # number of integer regfile writes
system.switch_cpus.ipc                       0.519239                       # IPC: Instructions Per Cycle
system.switch_cpus.ipc_total                 0.519239                       # IPC: Total IPC of All Threads
system.switch_cpus.iq.FU_type_0::No_OpClass            0      0.00%      0.00% # Type of FU issued
system.switch_cpus.iq.FU_type_0::IntAlu       1087113     62.27%     62.27% # Type of FU issued
system.switch_cpus.iq.FU_type_0::IntMult         3085      0.18%     62.44% # Type of FU issued
system.switch_cpus.iq.FU_type_0::IntDiv          1261      0.07%     62.52% # Type of FU issued
system.switch_cpus.iq.FU_type_0::FloatAdd            0      0.00%     62.52% # Type of FU issued
system.switch_cpus.iq.FU_type_0::FloatCmp            0      0.00%     62.52% # Type of FU issued
system.switch_cpus.iq.FU_type_0::FloatCvt            0      0.00%     62.52% # Type of FU issued
system.switch_cpus.iq.FU_type_0::FloatMult            0      0.00%     62.52% # Type of FU issued
system.switch_cpus.iq.FU_type_0::FloatMultAcc            0      0.00%     62.52% # Type of FU issued
system.switch_cpus.iq.FU_type_0::FloatDiv            0      0.00%     62.52% # Type of FU issued
system.switch_cpus.iq.FU_type_0::FloatMisc            0      0.00%     62.52% # Type of FU issued
system.switch_cpus.iq.FU_type_0::FloatSqrt            0      0.00%     62.52% # Type of FU issued
system.switch_cpus.iq.FU_type_0::SimdAdd            0      0.00%     62.52% # Type of FU issued
system.switch_cpus.iq.FU_type_0::SimdAddAcc            0      0.00%     62.52% # Type of FU issued
system.switch_cpus.iq.FU_type_0::SimdAlu            0      0.00%     62.52% # Type of FU issued
system.switch_cpus.iq.FU_type_0::SimdCmp            0      0.00%     62.52% # Type of FU issued
system.switch_cpus.iq.FU_type_0::SimdCvt            0      0.00%     62.52% # Type of FU issued
system.switch_cpus.iq.FU_type_0::SimdMisc            0      0.00%     62.52% # Type of FU issued
system.switch_cpus.iq.FU_type_0::SimdMult            0      0.00%     62.52% # Type of FU issued
system.switch_cpus.iq.FU_type_0::SimdMultAcc            0      0.00%     62.52% # Type of FU issued
system.switch_cpus.iq.FU_type_0::SimdShift            0      0.00%     62.52% # Type of FU issued
system.switch_cpus.iq.FU_type_0::SimdShiftAcc            0      0.00%     62.52% # Type of FU issued
system.switch_cpus.iq.FU_type_0::SimdDiv            0      0.00%     62.52% # Type of FU issued
system.switch_cpus.iq.FU_type_0::SimdSqrt            0      0.00%     62.52% # Type of FU issued
system.switch_cpus.iq.FU_type_0::SimdFloatAdd            0      0.00%     62.52% # Type of FU issued
system.switch_cpus.iq.FU_type_0::SimdFloatAlu            0      0.00%     62.52% # Type of FU issued
system.switch_cpus.iq.FU_type_0::SimdFloatCmp            0      0.00%     62.52% # Type of FU issued
system.switch_cpus.iq.FU_type_0::SimdFloatCvt            0      0.00%     62.52% # Type of FU issued
system.switch_cpus.iq.FU_type_0::SimdFloatDiv            0      0.00%     62.52% # Type of FU issued
system.switch_cpus.iq.FU_type_0::SimdFloatMisc            0      0.00%     62.52% # Type of FU issued
system.switch_cpus.iq.FU_type_0::SimdFloatMult            0      0.00%     62.52% # Type of FU issued
system.switch_cpus.iq.FU_type_0::SimdFloatMultAcc            0      0.00%     62.52% # Type of FU issued
system.switch_cpus.iq.FU_type_0::SimdFloatSqrt            0      0.00%     62.52% # Type of FU issued
system.switch_cpus.iq.FU_type_0::SimdReduceAdd            0      0.00%     62.52% # Type of FU issued
system.switch_cpus.iq.FU_type_0::SimdReduceAlu            0      0.00%     62.52% # Type of FU issued
system.switch_cpus.iq.FU_type_0::SimdReduceCmp            0      0.00%     62.52% # Type of FU issued
system.switch_cpus.iq.FU_type_0::SimdFloatReduceAdd            0      0.00%     62.52% # Type of FU issued
system.switch_cpus.iq.FU_type_0::SimdFloatReduceCmp            0      0.00%     62.52% # Type of FU issued
system.switch_cpus.iq.FU_type_0::SimdAes            0      0.00%     62.52% # Type of FU issued
system.switch_cpus.iq.FU_type_0::SimdAesMix            0      0.00%     62.52% # Type of FU issued
system.switch_cpus.iq.FU_type_0::SimdSha1Hash            0      0.00%     62.52% # Type of FU issued
system.switch_cpus.iq.FU_type_0::SimdSha1Hash2            0      0.00%     62.52% # Type of FU issued
system.switch_cpus.iq.FU_type_0::SimdSha256Hash            0      0.00%     62.52% # Type of FU issued
system.switch_cpus.iq.FU_type_0::SimdSha256Hash2            0      0.00%     62.52% # Type of FU issued
system.switch_cpus.iq.FU_type_0::SimdShaSigma2            0      0.00%     62.52% # Type of FU issued
system.switch_cpus.iq.FU_type_0::SimdShaSigma3            0      0.00%     62.52% # Type of FU issued
system.switch_cpus.iq.FU_type_0::SimdPredAlu            0      0.00%     62.52% # Type of FU issued
system.switch_cpus.iq.FU_type_0::MemRead       559919     32.07%     94.59% # Type of FU issued
system.switch_cpus.iq.FU_type_0::MemWrite        94506      5.41%    100.00% # Type of FU issued
system.switch_cpus.iq.FU_type_0::FloatMemRead            0      0.00%    100.00% # Type of FU issued
system.switch_cpus.iq.FU_type_0::FloatMemWrite            0      0.00%    100.00% # Type of FU issued
system.switch_cpus.iq.FU_type_0::IprAccess            0      0.00%    100.00% # Type of FU issued
system.switch_cpus.iq.FU_type_0::InstPrefetch            0      0.00%    100.00% # Type of FU issued
system.switch_cpus.iq.FU_type_0::total        1745884                       # Type of FU issued
system.switch_cpus.iq.fp_alu_accesses               0                       # Number of floating point alu accesses
system.switch_cpus.iq.fp_inst_queue_reads            0                       # Number of floating instruction queue reads
system.switch_cpus.iq.fp_inst_queue_wakeup_accesses            0                       # Number of floating instruction queue wakeup accesses
system.switch_cpus.iq.fp_inst_queue_writes            0                       # Number of floating instruction queue writes
system.switch_cpus.iq.fu_busy_cnt              730389                       # FU busy when requested
system.switch_cpus.iq.fu_busy_rate           0.418349                       # FU busy rate (busy events/executed inst)
system.switch_cpus.iq.fu_full::No_OpClass            0      0.00%      0.00% # attempts to use FU when none available
system.switch_cpus.iq.fu_full::IntAlu          338478     46.34%     46.34% # attempts to use FU when none available
system.switch_cpus.iq.fu_full::IntMult            266      0.04%     46.38% # attempts to use FU when none available
system.switch_cpus.iq.fu_full::IntDiv               6      0.00%     46.38% # attempts to use FU when none available
system.switch_cpus.iq.fu_full::FloatAdd             0      0.00%     46.38% # attempts to use FU when none available
system.switch_cpus.iq.fu_full::FloatCmp             0      0.00%     46.38% # attempts to use FU when none available
system.switch_cpus.iq.fu_full::FloatCvt             0      0.00%     46.38% # attempts to use FU when none available
system.switch_cpus.iq.fu_full::FloatMult            0      0.00%     46.38% # attempts to use FU when none available
system.switch_cpus.iq.fu_full::FloatMultAcc            0      0.00%     46.38% # attempts to use FU when none available
system.switch_cpus.iq.fu_full::FloatDiv             0      0.00%     46.38% # attempts to use FU when none available
system.switch_cpus.iq.fu_full::FloatMisc            0      0.00%     46.38% # attempts to use FU when none available
system.switch_cpus.iq.fu_full::FloatSqrt            0      0.00%     46.38% # attempts to use FU when none available
system.switch_cpus.iq.fu_full::SimdAdd              0      0.00%     46.38% # attempts to use FU when none available
system.switch_cpus.iq.fu_full::SimdAddAcc            0      0.00%     46.38% # attempts to use FU when none available
system.switch_cpus.iq.fu_full::SimdAlu              0      0.00%     46.38% # attempts to use FU when none available
system.switch_cpus.iq.fu_full::SimdCmp              0      0.00%     46.38% # attempts to use FU when none available
system.switch_cpus.iq.fu_full::SimdCvt              0      0.00%     46.38% # attempts to use FU when none available
system.switch_cpus.iq.fu_full::SimdMisc             0      0.00%     46.38% # attempts to use FU when none available
system.switch_cpus.iq.fu_full::SimdMult             0      0.00%     46.38% # attempts to use FU when none available
system.switch_cpus.iq.fu_full::SimdMultAcc            0      0.00%     46.38% # attempts to use FU when none available
system.switch_cpus.iq.fu_full::SimdShift            0      0.00%     46.38% # attempts to use FU when none available
system.switch_cpus.iq.fu_full::SimdShiftAcc            0      0.00%     46.38% # attempts to use FU when none available
system.switch_cpus.iq.fu_full::SimdDiv              0      0.00%     46.38% # attempts to use FU when none available
system.switch_cpus.iq.fu_full::SimdSqrt             0      0.00%     46.38% # attempts to use FU when none available
system.switch_cpus.iq.fu_full::SimdFloatAdd            0      0.00%     46.38% # attempts to use FU when none available
system.switch_cpus.iq.fu_full::SimdFloatAlu            0      0.00%     46.38% # attempts to use FU when none available
system.switch_cpus.iq.fu_full::SimdFloatCmp            0      0.00%     46.38% # attempts to use FU when none available
system.switch_cpus.iq.fu_full::SimdFloatCvt            0      0.00%     46.38% # attempts to use FU when none available
system.switch_cpus.iq.fu_full::SimdFloatDiv            0      0.00%     46.38% # attempts to use FU when none available
system.switch_cpus.iq.fu_full::SimdFloatMisc            0      0.00%     46.38% # attempts to use FU when none available
system.switch_cpus.iq.fu_full::SimdFloatMult            0      0.00%     46.38% # attempts to use FU when none available
system.switch_cpus.iq.fu_full::SimdFloatMultAcc            0      0.00%     46.38% # attempts to use FU when none available
system.switch_cpus.iq.fu_full::SimdFloatSqrt            0      0.00%     46.38% # attempts to use FU when none available
system.switch_cpus.iq.fu_full::SimdReduceAdd            0      0.00%     46.38% # attempts to use FU when none available
system.switch_cpus.iq.fu_full::SimdReduceAlu            0      0.00%     46.38% # attempts to use FU when none available
system.switch_cpus.iq.fu_full::SimdReduceCmp            0      0.00%     46.38% # attempts to use FU when none available
system.switch_cpus.iq.fu_full::SimdFloatReduceAdd            0      0.00%     46.38% # attempts to use FU when none available
system.switch_cpus.iq.fu_full::SimdFloatReduceCmp            0      0.00%     46.38% # attempts to use FU when none available
system.switch_cpus.iq.fu_full::SimdAes              0      0.00%     46.38% # attempts to use FU when none available
system.switch_cpus.iq.fu_full::SimdAesMix            0      0.00%     46.38% # attempts to use FU when none available
system.switch_cpus.iq.fu_full::SimdSha1Hash            0      0.00%     46.38% # attempts to use FU when none available
system.switch_cpus.iq.fu_full::SimdSha1Hash2            0      0.00%     46.38% # attempts to use FU when none available
system.switch_cpus.iq.fu_full::SimdSha256Hash            0      0.00%     46.38% # attempts to use FU when none available
system.switch_cpus.iq.fu_full::SimdSha256Hash2            0      0.00%     46.38% # attempts to use FU when none available
system.switch_cpus.iq.fu_full::SimdShaSigma2            0      0.00%     46.38% # attempts to use FU when none available
system.switch_cpus.iq.fu_full::SimdShaSigma3            0      0.00%     46.38% # attempts to use FU when none available
system.switch_cpus.iq.fu_full::SimdPredAlu            0      0.00%     46.38% # attempts to use FU when none available
system.switch_cpus.iq.fu_full::MemRead         369141     50.54%     96.92% # attempts to use FU when none available
system.switch_cpus.iq.fu_full::MemWrite         22498      3.08%    100.00% # attempts to use FU when none available
system.switch_cpus.iq.fu_full::FloatMemRead            0      0.00%    100.00% # attempts to use FU when none available
system.switch_cpus.iq.fu_full::FloatMemWrite            0      0.00%    100.00% # attempts to use FU when none available
system.switch_cpus.iq.fu_full::IprAccess            0      0.00%    100.00% # attempts to use FU when none available
system.switch_cpus.iq.fu_full::InstPrefetch            0      0.00%    100.00% # attempts to use FU when none available
system.switch_cpus.iq.int_alu_accesses        2476273                       # Number of integer alu accesses
system.switch_cpus.iq.int_inst_queue_reads      6266744                       # Number of integer instruction queue reads
system.switch_cpus.iq.int_inst_queue_wakeup_accesses      1582710                       # Number of integer instruction queue wakeup accesses
system.switch_cpus.iq.int_inst_queue_writes      3583429                       # Number of integer instruction queue writes
system.switch_cpus.iq.iqInstsAdded            2307051                       # Number of instructions added to the IQ (excludes non-spec)
system.switch_cpus.iq.iqInstsIssued           1745884                       # Number of instructions issued
system.switch_cpus.iq.iqSquashedInstsExamined      1276319                       # Number of squashed instructions iterated over during squash; mainly for profiling
system.switch_cpus.iq.iqSquashedInstsIssued       121629                       # Number of squashed instructions issued
system.switch_cpus.iq.iqSquashedOperandsExamined      1279358                       # Number of squashed operands that are examined and possibly removed from graph
system.switch_cpus.iq.issued_per_cycle::samples      1922961                       # Number of insts issued each cycle
system.switch_cpus.iq.issued_per_cycle::mean     0.907914                       # Number of insts issued each cycle
system.switch_cpus.iq.issued_per_cycle::stdev     1.229716                       # Number of insts issued each cycle
system.switch_cpus.iq.issued_per_cycle::underflows            0      0.00%      0.00% # Number of insts issued each cycle
system.switch_cpus.iq.issued_per_cycle::0      1124790     58.49%     58.49% # Number of insts issued each cycle
system.switch_cpus.iq.issued_per_cycle::1       231634     12.05%     70.54% # Number of insts issued each cycle
system.switch_cpus.iq.issued_per_cycle::2       229866     11.95%     82.49% # Number of insts issued each cycle
system.switch_cpus.iq.issued_per_cycle::3       292337     15.20%     97.69% # Number of insts issued each cycle
system.switch_cpus.iq.issued_per_cycle::4        44163      2.30%     99.99% # Number of insts issued each cycle
system.switch_cpus.iq.issued_per_cycle::5          171      0.01%    100.00% # Number of insts issued each cycle
system.switch_cpus.iq.issued_per_cycle::6            0      0.00%    100.00% # Number of insts issued each cycle
system.switch_cpus.iq.issued_per_cycle::7            0      0.00%    100.00% # Number of insts issued each cycle
system.switch_cpus.iq.issued_per_cycle::8            0      0.00%    100.00% # Number of insts issued each cycle
system.switch_cpus.iq.issued_per_cycle::overflows            0      0.00%    100.00% # Number of insts issued each cycle
system.switch_cpus.iq.issued_per_cycle::min_value            0                       # Number of insts issued each cycle
system.switch_cpus.iq.issued_per_cycle::max_value            5                       # Number of insts issued each cycle
system.switch_cpus.iq.issued_per_cycle::total      1922961                       # Number of insts issued each cycle
system.switch_cpus.iq.rate                   0.906530                       # Inst issue rate
system.switch_cpus.iq.vec_alu_accesses              0                       # Number of vector alu accesses
system.switch_cpus.iq.vec_inst_queue_reads            0                       # Number of vector instruction queue reads
system.switch_cpus.iq.vec_inst_queue_wakeup_accesses            0                       # Number of vector instruction queue wakeup accesses
system.switch_cpus.iq.vec_inst_queue_writes            0                       # Number of vector instruction queue writes
system.switch_cpus.memDep0.conflictingLoads        36416                       # Number of conflicting loads.
system.switch_cpus.memDep0.conflictingStores         8195                       # Number of conflicting stores.
system.switch_cpus.memDep0.insertedLoads       650865                       # Number of loads inserted to the mem dependence unit.
system.switch_cpus.memDep0.insertedStores       125323                       # Number of stores inserted to the mem dependence unit.
system.switch_cpus.misc_regfile_reads         4179494                       # number of misc regfile reads
system.switch_cpus.misc_regfile_writes              1                       # number of misc regfile writes
system.switch_cpus.numCycles                  1925898                       # number of cpu cycles simulated
system.switch_cpus.numWorkItemsCompleted            0                       # number of work items this cpu completed
system.switch_cpus.numWorkItemsStarted              0                       # number of work items this cpu started
system.switch_cpus.timesIdled                      37                       # Number of times that the entire CPU went into an idle state and unscheduled itself
system.switch_cpus.vec_regfile_writes              44                       # number of vector regfile writes
system.tol2bus.snoop_filter.hit_multi_requests            0                       # Number of requests hitting in the snoop filter with multiple (>1) holders of the requested data.
system.tol2bus.snoop_filter.hit_multi_snoops            0                       # Number of snoops hitting in the snoop filter with multiple (>1) holders of the requested data.
system.tol2bus.snoop_filter.hit_single_requests        50970                       # Number of requests hitting in the snoop filter with a single holder of the requested data.
system.tol2bus.snoop_filter.hit_single_snoops          232                       # Number of snoops hitting in the snoop filter with a single holder of the requested data.
system.tol2bus.snoop_filter.tot_requests       102243                       # Total number of requests made to the snoop filter.
system.tol2bus.snoop_filter.tot_snoops            232                       # Total number of snoops made to the snoop filter.
system.clk_domain.clock                          1000                       # Clock period in ticks
system.cpu.dcache.demand_hits::.cpu.data            2                       # number of demand (read+write) hits
system.cpu.dcache.demand_hits::.switch_cpus.data       377557                       # number of demand (read+write) hits
system.cpu.dcache.demand_hits::total           377559                       # number of demand (read+write) hits
system.cpu.dcache.overall_hits::.cpu.data            2                       # number of overall hits
system.cpu.dcache.overall_hits::.switch_cpus.data       377557                       # number of overall hits
system.cpu.dcache.overall_hits::total          377559                       # number of overall hits
system.cpu.dcache.demand_misses::.cpu.data            5                       # number of demand (read+write) misses
system.cpu.dcache.demand_misses::.switch_cpus.data        99692                       # number of demand (read+write) misses
system.cpu.dcache.demand_misses::total          99697                       # number of demand (read+write) misses
system.cpu.dcache.overall_misses::.cpu.data            5                       # number of overall misses
system.cpu.dcache.overall_misses::.switch_cpus.data        99692                       # number of overall misses
system.cpu.dcache.overall_misses::total         99697                       # number of overall misses
system.cpu.dcache.demand_miss_latency::.switch_cpus.data   3791047252                       # number of demand (read+write) miss cycles
system.cpu.dcache.demand_miss_latency::total   3791047252                       # number of demand (read+write) miss cycles
system.cpu.dcache.overall_miss_latency::.switch_cpus.data   3791047252                       # number of overall miss cycles
system.cpu.dcache.overall_miss_latency::total   3791047252                       # number of overall miss cycles
system.cpu.dcache.demand_accesses::.cpu.data            7                       # number of demand (read+write) accesses
system.cpu.dcache.demand_accesses::.switch_cpus.data       477249                       # number of demand (read+write) accesses
system.cpu.dcache.demand_accesses::total       477256                       # number of demand (read+write) accesses
system.cpu.dcache.overall_accesses::.cpu.data            7                       # number of overall (read+write) accesses
system.cpu.dcache.overall_accesses::.switch_cpus.data       477249                       # number of overall (read+write) accesses
system.cpu.dcache.overall_accesses::total       477256                       # number of overall (read+write) accesses
system.cpu.dcache.demand_miss_rate::.cpu.data     0.714286                       # miss rate for demand accesses
system.cpu.dcache.demand_miss_rate::.switch_cpus.data     0.208889                       # miss rate for demand accesses
system.cpu.dcache.demand_miss_rate::total     0.208896                       # miss rate for demand accesses
system.cpu.dcache.overall_miss_rate::.cpu.data     0.714286                       # miss rate for overall accesses
system.cpu.dcache.overall_miss_rate::.switch_cpus.data     0.208889                       # miss rate for overall accesses
system.cpu.dcache.overall_miss_rate::total     0.208896                       # miss rate for overall accesses
system.cpu.dcache.demand_avg_miss_latency::.switch_cpus.data 38027.597520                       # average overall miss latency
system.cpu.dcache.demand_avg_miss_latency::total 38025.690362                       # average overall miss latency
system.cpu.dcache.overall_avg_miss_latency::.switch_cpus.data 38027.597520                       # average overall miss latency
system.cpu.dcache.overall_avg_miss_latency::total 38025.690362                       # average overall miss latency
system.cpu.dcache.blocked_cycles::no_mshrs       363808                       # number of cycles access was blocked
system.cpu.dcache.blocked_cycles::no_targets        33107                       # number of cycles access was blocked
system.cpu.dcache.blocked::no_mshrs             18662                       # number of cycles access was blocked
system.cpu.dcache.blocked::no_targets             449                       # number of cycles access was blocked
system.cpu.dcache.avg_blocked_cycles::no_mshrs    19.494588                       # average number of cycles each access was blocked
system.cpu.dcache.avg_blocked_cycles::no_targets    73.734967                       # average number of cycles each access was blocked
system.cpu.dcache.writebacks::.writebacks        50971                       # number of writebacks
system.cpu.dcache.writebacks::total             50971                       # number of writebacks
system.cpu.dcache.demand_mshr_hits::.switch_cpus.data        48465                       # number of demand (read+write) MSHR hits
system.cpu.dcache.demand_mshr_hits::total        48465                       # number of demand (read+write) MSHR hits
system.cpu.dcache.overall_mshr_hits::.switch_cpus.data        48465                       # number of overall MSHR hits
system.cpu.dcache.overall_mshr_hits::total        48465                       # number of overall MSHR hits
system.cpu.dcache.demand_mshr_misses::.switch_cpus.data        51227                       # number of demand (read+write) MSHR misses
system.cpu.dcache.demand_mshr_misses::total        51227                       # number of demand (read+write) MSHR misses
system.cpu.dcache.overall_mshr_misses::.switch_cpus.data        51227                       # number of overall MSHR misses
system.cpu.dcache.overall_mshr_misses::total        51227                       # number of overall MSHR misses
system.cpu.dcache.demand_mshr_miss_latency::.switch_cpus.data   2053928762                       # number of demand (read+write) MSHR miss cycles
system.cpu.dcache.demand_mshr_miss_latency::total   2053928762                       # number of demand (read+write) MSHR miss cycles
system.cpu.dcache.overall_mshr_miss_latency::.switch_cpus.data   2053928762                       # number of overall MSHR miss cycles
system.cpu.dcache.overall_mshr_miss_latency::total   2053928762                       # number of overall MSHR miss cycles
system.cpu.dcache.demand_mshr_miss_rate::.switch_cpus.data     0.107338                       # mshr miss rate for demand accesses
system.cpu.dcache.demand_mshr_miss_rate::total     0.107337                       # mshr miss rate for demand accesses
system.cpu.dcache.overall_mshr_miss_rate::.switch_cpus.data     0.107338                       # mshr miss rate for overall accesses
system.cpu.dcache.overall_mshr_miss_rate::total     0.107337                       # mshr miss rate for overall accesses
system.cpu.dcache.demand_avg_mshr_miss_latency::.switch_cpus.data 40094.652468                       # average overall mshr miss latency
system.cpu.dcache.demand_avg_mshr_miss_latency::total 40094.652468                       # average overall mshr miss latency
system.cpu.dcache.overall_avg_mshr_miss_latency::.switch_cpus.data 40094.652468                       # average overall mshr miss latency
system.cpu.dcache.overall_avg_mshr_miss_latency::total 40094.652468                       # average overall mshr miss latency
system.cpu.dcache.replacements                  50971                       # number of replacements
system.cpu.dcache.ReadReq_hits::.cpu.data            2                       # number of ReadReq hits
system.cpu.dcache.ReadReq_hits::.switch_cpus.data       333093                       # number of ReadReq hits
system.cpu.dcache.ReadReq_hits::total          333095                       # number of ReadReq hits
system.cpu.dcache.ReadReq_misses::.cpu.data            5                       # number of ReadReq misses
system.cpu.dcache.ReadReq_misses::.switch_cpus.data        90906                       # number of ReadReq misses
system.cpu.dcache.ReadReq_misses::total         90911                       # number of ReadReq misses
system.cpu.dcache.ReadReq_miss_latency::.switch_cpus.data   3567197600                       # number of ReadReq miss cycles
system.cpu.dcache.ReadReq_miss_latency::total   3567197600                       # number of ReadReq miss cycles
system.cpu.dcache.ReadReq_accesses::.cpu.data            7                       # number of ReadReq accesses(hits+misses)
system.cpu.dcache.ReadReq_accesses::.switch_cpus.data       423999                       # number of ReadReq accesses(hits+misses)
system.cpu.dcache.ReadReq_accesses::total       424006                       # number of ReadReq accesses(hits+misses)
system.cpu.dcache.ReadReq_miss_rate::.cpu.data     0.714286                       # miss rate for ReadReq accesses
system.cpu.dcache.ReadReq_miss_rate::.switch_cpus.data     0.214401                       # miss rate for ReadReq accesses
system.cpu.dcache.ReadReq_miss_rate::total     0.214410                       # miss rate for ReadReq accesses
system.cpu.dcache.ReadReq_avg_miss_latency::.switch_cpus.data 39240.507777                       # average ReadReq miss latency
system.cpu.dcache.ReadReq_avg_miss_latency::total 39238.349595                       # average ReadReq miss latency
system.cpu.dcache.ReadReq_mshr_hits::.switch_cpus.data        42407                       # number of ReadReq MSHR hits
system.cpu.dcache.ReadReq_mshr_hits::total        42407                       # number of ReadReq MSHR hits
system.cpu.dcache.ReadReq_mshr_misses::.switch_cpus.data        48499                       # number of ReadReq MSHR misses
system.cpu.dcache.ReadReq_mshr_misses::total        48499                       # number of ReadReq MSHR misses
system.cpu.dcache.ReadReq_mshr_miss_latency::.switch_cpus.data   1984871600                       # number of ReadReq MSHR miss cycles
system.cpu.dcache.ReadReq_mshr_miss_latency::total   1984871600                       # number of ReadReq MSHR miss cycles
system.cpu.dcache.ReadReq_mshr_miss_rate::.switch_cpus.data     0.114385                       # mshr miss rate for ReadReq accesses
system.cpu.dcache.ReadReq_mshr_miss_rate::total     0.114383                       # mshr miss rate for ReadReq accesses
system.cpu.dcache.ReadReq_avg_mshr_miss_latency::.switch_cpus.data 40926.031465                       # average ReadReq mshr miss latency
system.cpu.dcache.ReadReq_avg_mshr_miss_latency::total 40926.031465                       # average ReadReq mshr miss latency
system.cpu.dcache.WriteReq_hits::.switch_cpus.data        44464                       # number of WriteReq hits
system.cpu.dcache.WriteReq_hits::total          44464                       # number of WriteReq hits
system.cpu.dcache.WriteReq_misses::.switch_cpus.data         8786                       # number of WriteReq misses
system.cpu.dcache.WriteReq_misses::total         8786                       # number of WriteReq misses
system.cpu.dcache.WriteReq_miss_latency::.switch_cpus.data    223849652                       # number of WriteReq miss cycles
system.cpu.dcache.WriteReq_miss_latency::total    223849652                       # number of WriteReq miss cycles
system.cpu.dcache.WriteReq_accesses::.switch_cpus.data        53250                       # number of WriteReq accesses(hits+misses)
system.cpu.dcache.WriteReq_accesses::total        53250                       # number of WriteReq accesses(hits+misses)
system.cpu.dcache.WriteReq_miss_rate::.switch_cpus.data     0.164995                       # miss rate for WriteReq accesses
system.cpu.dcache.WriteReq_miss_rate::total     0.164995                       # miss rate for WriteReq accesses
system.cpu.dcache.WriteReq_avg_miss_latency::.switch_cpus.data 25477.993626                       # average WriteReq miss latency
system.cpu.dcache.WriteReq_avg_miss_latency::total 25477.993626                       # average WriteReq miss latency
system.cpu.dcache.WriteReq_mshr_hits::.switch_cpus.data         6058                       # number of WriteReq MSHR hits
system.cpu.dcache.WriteReq_mshr_hits::total         6058                       # number of WriteReq MSHR hits
system.cpu.dcache.WriteReq_mshr_misses::.switch_cpus.data         2728                       # number of WriteReq MSHR misses
system.cpu.dcache.WriteReq_mshr_misses::total         2728                       # number of WriteReq MSHR misses
system.cpu.dcache.WriteReq_mshr_miss_latency::.switch_cpus.data     69057162                       # number of WriteReq MSHR miss cycles
system.cpu.dcache.WriteReq_mshr_miss_latency::total     69057162                       # number of WriteReq MSHR miss cycles
system.cpu.dcache.WriteReq_mshr_miss_rate::.switch_cpus.data     0.051230                       # mshr miss rate for WriteReq accesses
system.cpu.dcache.WriteReq_mshr_miss_rate::total     0.051230                       # mshr miss rate for WriteReq accesses
system.cpu.dcache.WriteReq_avg_mshr_miss_latency::.switch_cpus.data 25314.208944                       # average WriteReq mshr miss latency
system.cpu.dcache.WriteReq_avg_mshr_miss_latency::total 25314.208944                       # average WriteReq mshr miss latency
system.cpu.dcache.power_state.pwrStateResidencyTicks::UNDEFINED 6461673545600                       # Cumulative time (in ticks) in various power states
system.cpu.dcache.tags.tagsinuse           255.207526                       # Cycle average of tags in use
system.cpu.dcache.tags.total_refs              427159                       # Total number of references to valid blocks.
system.cpu.dcache.tags.sampled_refs             50971                       # Sample count of references to valid blocks.
system.cpu.dcache.tags.avg_refs              8.380432                       # Average number of references to valid blocks.
system.cpu.dcache.tags.warmup_cycle      6460903176800                       # Cycle when the warmup percentage was hit.
system.cpu.dcache.tags.occ_blocks::.cpu.data     0.098100                       # Average occupied blocks per requestor
system.cpu.dcache.tags.occ_blocks::.switch_cpus.data   255.109426                       # Average occupied blocks per requestor
system.cpu.dcache.tags.occ_percent::.cpu.data     0.000383                       # Average percentage of cache occupancy
system.cpu.dcache.tags.occ_percent::.switch_cpus.data     0.996521                       # Average percentage of cache occupancy
system.cpu.dcache.tags.occ_percent::total     0.996904                       # Average percentage of cache occupancy
system.cpu.dcache.tags.occ_task_id_blocks::1024          256                       # Occupied blocks per task id
system.cpu.dcache.tags.age_task_id_blocks_1024::0          254                       # Occupied blocks per task id
system.cpu.dcache.tags.age_task_id_blocks_1024::1            2                       # Occupied blocks per task id
system.cpu.dcache.tags.occ_task_id_percent::1024            1                       # Percentage of cache occupancy per task id
system.cpu.dcache.tags.tag_accesses           3869275                       # Number of tag accesses
system.cpu.dcache.tags.data_accesses          3869275                       # Number of data accesses
system.cpu.dcache.tags.power_state.pwrStateResidencyTicks::UNDEFINED 6461673545600                       # Cumulative time (in ticks) in various power states
system.cpu.dtb.instHits                             0                       # ITB inst hits
system.cpu.dtb.instMisses                           0                       # ITB inst misses
system.cpu.dtb.readHits                             0                       # DTB read hits
system.cpu.dtb.readMisses                           0                       # DTB read misses
system.cpu.dtb.writeHits                            0                       # DTB write hits
system.cpu.dtb.writeMisses                          0                       # DTB write misses
system.cpu.dtb.inserts                              0                       # Number of times an entry is inserted into the TLB
system.cpu.dtb.flushTlb                             2                       # Number of times complete TLB was flushed
system.cpu.dtb.flushTlbMva                          0                       # Number of times TLB was flushed by MVA
system.cpu.dtb.flushTlbMvaAsid                      0                       # Number of times TLB was flushed by MVA & ASID
system.cpu.dtb.flushTlbAsid                         0                       # Number of times TLB was flushed by ASID
system.cpu.dtb.flushedEntries                       0                       # Number of entries that have been flushed from TLB
system.cpu.dtb.alignFaults                          0                       # Number of TLB faults due to alignment restrictions
system.cpu.dtb.prefetchFaults                       0                       # Number of TLB faults due to prefetch
system.cpu.dtb.domainFaults                         0                       # Number of TLB faults due to domain restrictions
system.cpu.dtb.permsFaults                          0                       # Number of TLB faults due to permissions restrictions
system.cpu.dtb.readAccesses                         0                       # DTB read accesses
system.cpu.dtb.writeAccesses                        0                       # DTB write accesses
system.cpu.dtb.instAccesses                         0                       # ITB inst accesses
system.cpu.dtb.hits                                 0                       # Total TLB (inst and data) hits
system.cpu.dtb.misses                               0                       # Total TLB (inst and data) misses
system.cpu.dtb.accesses                             0                       # Total TLB (inst and data) accesses
system.cpu.dtb.stage2_mmu.stage2_tlb.instHits            0                       # ITB inst hits
system.cpu.dtb.stage2_mmu.stage2_tlb.instMisses            0                       # ITB inst misses
system.cpu.dtb.stage2_mmu.stage2_tlb.readHits            0                       # DTB read hits
system.cpu.dtb.stage2_mmu.stage2_tlb.readMisses            0                       # DTB read misses
system.cpu.dtb.stage2_mmu.stage2_tlb.writeHits            0                       # DTB write hits
system.cpu.dtb.stage2_mmu.stage2_tlb.writeMisses            0                       # DTB write misses
system.cpu.dtb.stage2_mmu.stage2_tlb.inserts            0                       # Number of times an entry is inserted into the TLB
system.cpu.dtb.stage2_mmu.stage2_tlb.flushTlb            0                       # Number of times complete TLB was flushed
system.cpu.dtb.stage2_mmu.stage2_tlb.flushTlbMva            0                       # Number of times TLB was flushed by MVA
system.cpu.dtb.stage2_mmu.stage2_tlb.flushTlbMvaAsid            0                       # Number of times TLB was flushed by MVA & ASID
system.cpu.dtb.stage2_mmu.stage2_tlb.flushTlbAsid            0                       # Number of times TLB was flushed by ASID
system.cpu.dtb.stage2_mmu.stage2_tlb.flushedEntries            0                       # Number of entries that have been flushed from TLB
system.cpu.dtb.stage2_mmu.stage2_tlb.alignFaults            0                       # Number of TLB faults due to alignment restrictions
system.cpu.dtb.stage2_mmu.stage2_tlb.prefetchFaults            0                       # Number of TLB faults due to prefetch
system.cpu.dtb.stage2_mmu.stage2_tlb.domainFaults            0                       # Number of TLB faults due to domain restrictions
system.cpu.dtb.stage2_mmu.stage2_tlb.permsFaults            0                       # Number of TLB faults due to permissions restrictions
system.cpu.dtb.stage2_mmu.stage2_tlb.readAccesses            0                       # DTB read accesses
system.cpu.dtb.stage2_mmu.stage2_tlb.writeAccesses            0                       # DTB write accesses
system.cpu.dtb.stage2_mmu.stage2_tlb.instAccesses            0                       # ITB inst accesses
system.cpu.dtb.stage2_mmu.stage2_tlb.hits            0                       # Total TLB (inst and data) hits
system.cpu.dtb.stage2_mmu.stage2_tlb.misses            0                       # Total TLB (inst and data) misses
system.cpu.dtb.stage2_mmu.stage2_tlb.accesses            0                       # Total TLB (inst and data) accesses
system.cpu.dtb.stage2_mmu.stage2_tlb.walker.walks            0                       # Table walker walks requested
system.cpu.dtb.stage2_mmu.stage2_tlb.walker.requestOrigin_Requested::Data            0                       # Table walker requests started/completed, data/inst
system.cpu.dtb.stage2_mmu.stage2_tlb.walker.requestOrigin_Requested::Inst            0                       # Table walker requests started/completed, data/inst
system.cpu.dtb.stage2_mmu.stage2_tlb.walker.requestOrigin_Requested::total            0                       # Table walker requests started/completed, data/inst
system.cpu.dtb.stage2_mmu.stage2_tlb.walker.requestOrigin_Completed::Data            0                       # Table walker requests started/completed, data/inst
system.cpu.dtb.stage2_mmu.stage2_tlb.walker.requestOrigin_Completed::Inst            0                       # Table walker requests started/completed, data/inst
system.cpu.dtb.stage2_mmu.stage2_tlb.walker.requestOrigin_Completed::total            0                       # Table walker requests started/completed, data/inst
system.cpu.dtb.stage2_mmu.stage2_tlb.walker.requestOrigin::total            0                       # Table walker requests started/completed, data/inst
system.cpu.dtb.stage2_mmu.stage2_tlb.walker.power_state.pwrStateResidencyTicks::UNDEFINED 6461673545600                       # Cumulative time (in ticks) in various power states
system.cpu.dtb.walker.walks                         0                       # Table walker walks requested
system.cpu.dtb.walker.requestOrigin_Requested::Data            0                       # Table walker requests started/completed, data/inst
system.cpu.dtb.walker.requestOrigin_Requested::Inst            0                       # Table walker requests started/completed, data/inst
system.cpu.dtb.walker.requestOrigin_Requested::total            0                       # Table walker requests started/completed, data/inst
system.cpu.dtb.walker.requestOrigin_Completed::Data            0                       # Table walker requests started/completed, data/inst
system.cpu.dtb.walker.requestOrigin_Completed::Inst            0                       # Table walker requests started/completed, data/inst
system.cpu.dtb.walker.requestOrigin_Completed::total            0                       # Table walker requests started/completed, data/inst
system.cpu.dtb.walker.requestOrigin::total            0                       # Table walker requests started/completed, data/inst
system.cpu.dtb.walker.power_state.pwrStateResidencyTicks::UNDEFINED 6461673545600                       # Cumulative time (in ticks) in various power states
system.cpu.dtb_walker_cache.blocked_cycles::no_mshrs            0                       # number of cycles access was blocked
system.cpu.dtb_walker_cache.blocked_cycles::no_targets            0                       # number of cycles access was blocked
system.cpu.dtb_walker_cache.blocked::no_mshrs            0                       # number of cycles access was blocked
system.cpu.dtb_walker_cache.blocked::no_targets            0                       # number of cycles access was blocked
system.cpu.dtb_walker_cache.avg_blocked_cycles::no_mshrs          nan                       # average number of cycles each access was blocked
system.cpu.dtb_walker_cache.avg_blocked_cycles::no_targets          nan                       # average number of cycles each access was blocked
system.cpu.dtb_walker_cache.replacements            0                       # number of replacements
system.cpu.dtb_walker_cache.power_state.pwrStateResidencyTicks::UNDEFINED 6461673545600                       # Cumulative time (in ticks) in various power states
system.cpu.dtb_walker_cache.tags.tagsinuse            0                       # Cycle average of tags in use
system.cpu.dtb_walker_cache.tags.total_refs            0                       # Total number of references to valid blocks.
system.cpu.dtb_walker_cache.tags.sampled_refs            0                       # Sample count of references to valid blocks.
system.cpu.dtb_walker_cache.tags.avg_refs          nan                       # Average number of references to valid blocks.
system.cpu.dtb_walker_cache.tags.warmup_cycle            0                       # Cycle when the warmup percentage was hit.
system.cpu.dtb_walker_cache.tags.tag_accesses            0                       # Number of tag accesses
system.cpu.dtb_walker_cache.tags.data_accesses            0                       # Number of data accesses
system.cpu.dtb_walker_cache.tags.power_state.pwrStateResidencyTicks::UNDEFINED 6461673545600                       # Cumulative time (in ticks) in various power states
system.cpu.icache.demand_hits::.cpu.inst           22                       # number of demand (read+write) hits
system.cpu.icache.demand_hits::.switch_cpus.inst       543637                       # number of demand (read+write) hits
system.cpu.icache.demand_hits::total           543659                       # number of demand (read+write) hits
system.cpu.icache.overall_hits::.cpu.inst           22                       # number of overall hits
system.cpu.icache.overall_hits::.switch_cpus.inst       543637                       # number of overall hits
system.cpu.icache.overall_hits::total          543659                       # number of overall hits
system.cpu.icache.demand_misses::.cpu.inst            2                       # number of demand (read+write) misses
system.cpu.icache.demand_misses::.switch_cpus.inst           67                       # number of demand (read+write) misses
system.cpu.icache.demand_misses::total             69                       # number of demand (read+write) misses
system.cpu.icache.overall_misses::.cpu.inst            2                       # number of overall misses
system.cpu.icache.overall_misses::.switch_cpus.inst           67                       # number of overall misses
system.cpu.icache.overall_misses::total            69                       # number of overall misses
system.cpu.icache.demand_miss_latency::.switch_cpus.inst      4062000                       # number of demand (read+write) miss cycles
system.cpu.icache.demand_miss_latency::total      4062000                       # number of demand (read+write) miss cycles
system.cpu.icache.overall_miss_latency::.switch_cpus.inst      4062000                       # number of overall miss cycles
system.cpu.icache.overall_miss_latency::total      4062000                       # number of overall miss cycles
system.cpu.icache.demand_accesses::.cpu.inst           24                       # number of demand (read+write) accesses
system.cpu.icache.demand_accesses::.switch_cpus.inst       543704                       # number of demand (read+write) accesses
system.cpu.icache.demand_accesses::total       543728                       # number of demand (read+write) accesses
system.cpu.icache.overall_accesses::.cpu.inst           24                       # number of overall (read+write) accesses
system.cpu.icache.overall_accesses::.switch_cpus.inst       543704                       # number of overall (read+write) accesses
system.cpu.icache.overall_accesses::total       543728                       # number of overall (read+write) accesses
system.cpu.icache.demand_miss_rate::.cpu.inst     0.083333                       # miss rate for demand accesses
system.cpu.icache.demand_miss_rate::.switch_cpus.inst     0.000123                       # miss rate for demand accesses
system.cpu.icache.demand_miss_rate::total     0.000127                       # miss rate for demand accesses
system.cpu.icache.overall_miss_rate::.cpu.inst     0.083333                       # miss rate for overall accesses
system.cpu.icache.overall_miss_rate::.switch_cpus.inst     0.000123                       # miss rate for overall accesses
system.cpu.icache.overall_miss_rate::total     0.000127                       # miss rate for overall accesses
system.cpu.icache.demand_avg_miss_latency::.switch_cpus.inst 60626.865672                       # average overall miss latency
system.cpu.icache.demand_avg_miss_latency::total 58869.565217                       # average overall miss latency
system.cpu.icache.overall_avg_miss_latency::.switch_cpus.inst 60626.865672                       # average overall miss latency
system.cpu.icache.overall_avg_miss_latency::total 58869.565217                       # average overall miss latency
system.cpu.icache.blocked_cycles::no_mshrs         1125                       # number of cycles access was blocked
system.cpu.icache.blocked_cycles::no_targets           29                       # number of cycles access was blocked
system.cpu.icache.blocked::no_mshrs                 7                       # number of cycles access was blocked
system.cpu.icache.blocked::no_targets               1                       # number of cycles access was blocked
system.cpu.icache.avg_blocked_cycles::no_mshrs   160.714286                       # average number of cycles each access was blocked
system.cpu.icache.avg_blocked_cycles::no_targets           29                       # average number of cycles each access was blocked
system.cpu.icache.demand_mshr_hits::.switch_cpus.inst           28                       # number of demand (read+write) MSHR hits
system.cpu.icache.demand_mshr_hits::total           28                       # number of demand (read+write) MSHR hits
system.cpu.icache.overall_mshr_hits::.switch_cpus.inst           28                       # number of overall MSHR hits
system.cpu.icache.overall_mshr_hits::total           28                       # number of overall MSHR hits
system.cpu.icache.demand_mshr_misses::.switch_cpus.inst           39                       # number of demand (read+write) MSHR misses
system.cpu.icache.demand_mshr_misses::total           39                       # number of demand (read+write) MSHR misses
system.cpu.icache.overall_mshr_misses::.switch_cpus.inst           39                       # number of overall MSHR misses
system.cpu.icache.overall_mshr_misses::total           39                       # number of overall MSHR misses
system.cpu.icache.demand_mshr_miss_latency::.switch_cpus.inst      2891200                       # number of demand (read+write) MSHR miss cycles
system.cpu.icache.demand_mshr_miss_latency::total      2891200                       # number of demand (read+write) MSHR miss cycles
system.cpu.icache.overall_mshr_miss_latency::.switch_cpus.inst      2891200                       # number of overall MSHR miss cycles
system.cpu.icache.overall_mshr_miss_latency::total      2891200                       # number of overall MSHR miss cycles
system.cpu.icache.demand_mshr_miss_rate::.switch_cpus.inst     0.000072                       # mshr miss rate for demand accesses
system.cpu.icache.demand_mshr_miss_rate::total     0.000072                       # mshr miss rate for demand accesses
system.cpu.icache.overall_mshr_miss_rate::.switch_cpus.inst     0.000072                       # mshr miss rate for overall accesses
system.cpu.icache.overall_mshr_miss_rate::total     0.000072                       # mshr miss rate for overall accesses
system.cpu.icache.demand_avg_mshr_miss_latency::.switch_cpus.inst 74133.333333                       # average overall mshr miss latency
system.cpu.icache.demand_avg_mshr_miss_latency::total 74133.333333                       # average overall mshr miss latency
system.cpu.icache.overall_avg_mshr_miss_latency::.switch_cpus.inst 74133.333333                       # average overall mshr miss latency
system.cpu.icache.overall_avg_mshr_miss_latency::total 74133.333333                       # average overall mshr miss latency
system.cpu.icache.replacements                      0                       # number of replacements
system.cpu.icache.ReadReq_hits::.cpu.inst           22                       # number of ReadReq hits
system.cpu.icache.ReadReq_hits::.switch_cpus.inst       543637                       # number of ReadReq hits
system.cpu.icache.ReadReq_hits::total          543659                       # number of ReadReq hits
system.cpu.icache.ReadReq_misses::.cpu.inst            2                       # number of ReadReq misses
system.cpu.icache.ReadReq_misses::.switch_cpus.inst           67                       # number of ReadReq misses
system.cpu.icache.ReadReq_misses::total            69                       # number of ReadReq misses
system.cpu.icache.ReadReq_miss_latency::.switch_cpus.inst      4062000                       # number of ReadReq miss cycles
system.cpu.icache.ReadReq_miss_latency::total      4062000                       # number of ReadReq miss cycles
system.cpu.icache.ReadReq_accesses::.cpu.inst           24                       # number of ReadReq accesses(hits+misses)
system.cpu.icache.ReadReq_accesses::.switch_cpus.inst       543704                       # number of ReadReq accesses(hits+misses)
system.cpu.icache.ReadReq_accesses::total       543728                       # number of ReadReq accesses(hits+misses)
system.cpu.icache.ReadReq_miss_rate::.cpu.inst     0.083333                       # miss rate for ReadReq accesses
system.cpu.icache.ReadReq_miss_rate::.switch_cpus.inst     0.000123                       # miss rate for ReadReq accesses
system.cpu.icache.ReadReq_miss_rate::total     0.000127                       # miss rate for ReadReq accesses
system.cpu.icache.ReadReq_avg_miss_latency::.switch_cpus.inst 60626.865672                       # average ReadReq miss latency
system.cpu.icache.ReadReq_avg_miss_latency::total 58869.565217                       # average ReadReq miss latency
system.cpu.icache.ReadReq_mshr_hits::.switch_cpus.inst           28                       # number of ReadReq MSHR hits
system.cpu.icache.ReadReq_mshr_hits::total           28                       # number of ReadReq MSHR hits
system.cpu.icache.ReadReq_mshr_misses::.switch_cpus.inst           39                       # number of ReadReq MSHR misses
system.cpu.icache.ReadReq_mshr_misses::total           39                       # number of ReadReq MSHR misses
system.cpu.icache.ReadReq_mshr_miss_latency::.switch_cpus.inst      2891200                       # number of ReadReq MSHR miss cycles
system.cpu.icache.ReadReq_mshr_miss_latency::total      2891200                       # number of ReadReq MSHR miss cycles
system.cpu.icache.ReadReq_mshr_miss_rate::.switch_cpus.inst     0.000072                       # mshr miss rate for ReadReq accesses
system.cpu.icache.ReadReq_mshr_miss_rate::total     0.000072                       # mshr miss rate for ReadReq accesses
system.cpu.icache.ReadReq_avg_mshr_miss_latency::.switch_cpus.inst 74133.333333                       # average ReadReq mshr miss latency
system.cpu.icache.ReadReq_avg_mshr_miss_latency::total 74133.333333                       # average ReadReq mshr miss latency
system.cpu.icache.power_state.pwrStateResidencyTicks::UNDEFINED 6461673545600                       # Cumulative time (in ticks) in various power states
system.cpu.icache.tags.tagsinuse            38.022358                       # Cycle average of tags in use
system.cpu.icache.tags.total_refs                   0                       # Total number of references to valid blocks.
system.cpu.icache.tags.sampled_refs                 0                       # Sample count of references to valid blocks.
system.cpu.icache.tags.avg_refs                   nan                       # Average number of references to valid blocks.
system.cpu.icache.tags.warmup_cycle      6460903176800                       # Cycle when the warmup percentage was hit.
system.cpu.icache.tags.occ_blocks::.cpu.inst     1.999996                       # Average occupied blocks per requestor
system.cpu.icache.tags.occ_blocks::.switch_cpus.inst    36.022362                       # Average occupied blocks per requestor
system.cpu.icache.tags.occ_percent::.cpu.inst     0.003906                       # Average percentage of cache occupancy
system.cpu.icache.tags.occ_percent::.switch_cpus.inst     0.070356                       # Average percentage of cache occupancy
system.cpu.icache.tags.occ_percent::total     0.074262                       # Average percentage of cache occupancy
system.cpu.icache.tags.occ_task_id_blocks::1024           41                       # Occupied blocks per task id
system.cpu.icache.tags.age_task_id_blocks_1024::2           41                       # Occupied blocks per task id
system.cpu.icache.tags.occ_task_id_percent::1024     0.080078                       # Percentage of cache occupancy per task id
system.cpu.icache.tags.tag_accesses           4349865                       # Number of tag accesses
system.cpu.icache.tags.data_accesses          4349865                       # Number of data accesses
system.cpu.icache.tags.power_state.pwrStateResidencyTicks::UNDEFINED 6461673545600                       # Cumulative time (in ticks) in various power states
system.cpu.itb.instHits                             0                       # ITB inst hits
system.cpu.itb.instMisses                           0                       # ITB inst misses
system.cpu.itb.readHits                             0                       # DTB read hits
system.cpu.itb.readMisses                           0                       # DTB read misses
system.cpu.itb.writeHits                            0                       # DTB write hits
system.cpu.itb.writeMisses                          0                       # DTB write misses
system.cpu.itb.inserts                              0                       # Number of times an entry is inserted into the TLB
system.cpu.itb.flushTlb                             2                       # Number of times complete TLB was flushed
system.cpu.itb.flushTlbMva                          0                       # Number of times TLB was flushed by MVA
system.cpu.itb.flushTlbMvaAsid                      0                       # Number of times TLB was flushed by MVA & ASID
system.cpu.itb.flushTlbAsid                         0                       # Number of times TLB was flushed by ASID
system.cpu.itb.flushedEntries                       0                       # Number of entries that have been flushed from TLB
system.cpu.itb.alignFaults                          0                       # Number of TLB faults due to alignment restrictions
system.cpu.itb.prefetchFaults                       0                       # Number of TLB faults due to prefetch
system.cpu.itb.domainFaults                         0                       # Number of TLB faults due to domain restrictions
system.cpu.itb.permsFaults                          0                       # Number of TLB faults due to permissions restrictions
system.cpu.itb.readAccesses                         0                       # DTB read accesses
system.cpu.itb.writeAccesses                        0                       # DTB write accesses
system.cpu.itb.instAccesses                         0                       # ITB inst accesses
system.cpu.itb.hits                                 0                       # Total TLB (inst and data) hits
system.cpu.itb.misses                               0                       # Total TLB (inst and data) misses
system.cpu.itb.accesses                             0                       # Total TLB (inst and data) accesses
system.cpu.itb.stage2_mmu.stage2_tlb.instHits            0                       # ITB inst hits
system.cpu.itb.stage2_mmu.stage2_tlb.instMisses            0                       # ITB inst misses
system.cpu.itb.stage2_mmu.stage2_tlb.readHits            0                       # DTB read hits
system.cpu.itb.stage2_mmu.stage2_tlb.readMisses            0                       # DTB read misses
system.cpu.itb.stage2_mmu.stage2_tlb.writeHits            0                       # DTB write hits
system.cpu.itb.stage2_mmu.stage2_tlb.writeMisses            0                       # DTB write misses
system.cpu.itb.stage2_mmu.stage2_tlb.inserts            0                       # Number of times an entry is inserted into the TLB
system.cpu.itb.stage2_mmu.stage2_tlb.flushTlb            0                       # Number of times complete TLB was flushed
system.cpu.itb.stage2_mmu.stage2_tlb.flushTlbMva            0                       # Number of times TLB was flushed by MVA
system.cpu.itb.stage2_mmu.stage2_tlb.flushTlbMvaAsid            0                       # Number of times TLB was flushed by MVA & ASID
system.cpu.itb.stage2_mmu.stage2_tlb.flushTlbAsid            0                       # Number of times TLB was flushed by ASID
system.cpu.itb.stage2_mmu.stage2_tlb.flushedEntries            0                       # Number of entries that have been flushed from TLB
system.cpu.itb.stage2_mmu.stage2_tlb.alignFaults            0                       # Number of TLB faults due to alignment restrictions
system.cpu.itb.stage2_mmu.stage2_tlb.prefetchFaults            0                       # Number of TLB faults due to prefetch
system.cpu.itb.stage2_mmu.stage2_tlb.domainFaults            0                       # Number of TLB faults due to domain restrictions
system.cpu.itb.stage2_mmu.stage2_tlb.permsFaults            0                       # Number of TLB faults due to permissions restrictions
system.cpu.itb.stage2_mmu.stage2_tlb.readAccesses            0                       # DTB read accesses
system.cpu.itb.stage2_mmu.stage2_tlb.writeAccesses            0                       # DTB write accesses
system.cpu.itb.stage2_mmu.stage2_tlb.instAccesses            0                       # ITB inst accesses
system.cpu.itb.stage2_mmu.stage2_tlb.hits            0                       # Total TLB (inst and data) hits
system.cpu.itb.stage2_mmu.stage2_tlb.misses            0                       # Total TLB (inst and data) misses
system.cpu.itb.stage2_mmu.stage2_tlb.accesses            0                       # Total TLB (inst and data) accesses
system.cpu.itb.stage2_mmu.stage2_tlb.walker.walks            0                       # Table walker walks requested
system.cpu.itb.stage2_mmu.stage2_tlb.walker.requestOrigin_Requested::Data            0                       # Table walker requests started/completed, data/inst
system.cpu.itb.stage2_mmu.stage2_tlb.walker.requestOrigin_Requested::Inst            0                       # Table walker requests started/completed, data/inst
system.cpu.itb.stage2_mmu.stage2_tlb.walker.requestOrigin_Requested::total            0                       # Table walker requests started/completed, data/inst
system.cpu.itb.stage2_mmu.stage2_tlb.walker.requestOrigin_Completed::Data            0                       # Table walker requests started/completed, data/inst
system.cpu.itb.stage2_mmu.stage2_tlb.walker.requestOrigin_Completed::Inst            0                       # Table walker requests started/completed, data/inst
system.cpu.itb.stage2_mmu.stage2_tlb.walker.requestOrigin_Completed::total            0                       # Table walker requests started/completed, data/inst
system.cpu.itb.stage2_mmu.stage2_tlb.walker.requestOrigin::total            0                       # Table walker requests started/completed, data/inst
system.cpu.itb.stage2_mmu.stage2_tlb.walker.power_state.pwrStateResidencyTicks::UNDEFINED 6461673545600                       # Cumulative time (in ticks) in various power states
system.cpu.itb.walker.walks                         0                       # Table walker walks requested
system.cpu.itb.walker.requestOrigin_Requested::Data            0                       # Table walker requests started/completed, data/inst
system.cpu.itb.walker.requestOrigin_Requested::Inst            0                       # Table walker requests started/completed, data/inst
system.cpu.itb.walker.requestOrigin_Requested::total            0                       # Table walker requests started/completed, data/inst
system.cpu.itb.walker.requestOrigin_Completed::Data            0                       # Table walker requests started/completed, data/inst
system.cpu.itb.walker.requestOrigin_Completed::Inst            0                       # Table walker requests started/completed, data/inst
system.cpu.itb.walker.requestOrigin_Completed::total            0                       # Table walker requests started/completed, data/inst
system.cpu.itb.walker.requestOrigin::total            0                       # Table walker requests started/completed, data/inst
system.cpu.itb.walker.power_state.pwrStateResidencyTicks::UNDEFINED 6461673545600                       # Cumulative time (in ticks) in various power states
system.cpu.itb_walker_cache.blocked_cycles::no_mshrs            0                       # number of cycles access was blocked
[...]
system.switch_cpus.fetch.insts               26871949                       # Number of instructions fetch has processed
system.switch_cpus.fetch.branches             7085769                       # Number of branches that fetch encountered
system.switch_cpus.fetch.predictedBranches      3772328                       # Number of branches that fetch has predicted taken
system.switch_cpus.fetch.cycles              19473221                       # Number of cycles fetch has run and was not squashing or blocked
system.switch_cpus.fetch.squashCycles          383534                       # Number of cycles fetch has spent squashing
system.switch_cpus.fetch.cacheLines           4962533                       # Number of cache lines fetched
system.switch_cpus.fetch.icacheSquashes             6                       # Number of outstanding Icache misses that were squashed
system.switch_cpus.fetch.nisnDist::samples     19802602                       # Number of instructions fetched each cycle (Total)
system.switch_cpus.fetch.nisnDist::mean      1.392274                       # Number of instructions fetched each cycle (Total)
system.switch_cpus.fetch.nisnDist::stdev     2.360110                       # Number of instructions fetched each cycle (Total)
system.switch_cpus.fetch.nisnDist::underflows            0      0.00%      0.00% # Number of instructions fetched each cycle (Total)
system.switch_cpus.fetch.nisnDist::0         12829613     64.79%     64.79% # Number of instructions fetched each cycle (Total)
system.switch_cpus.fetch.nisnDist::1           996894      5.03%     69.82% # Number of instructions fetched each cycle (Total)
system.switch_cpus.fetch.nisnDist::2          1287444      6.50%     76.32% # Number of instructions fetched each cycle (Total)
system.switch_cpus.fetch.nisnDist::3          1349229      6.81%     83.14% # Number of instructions fetched each cycle (Total)
system.switch_cpus.fetch.nisnDist::4          1440279      7.27%     90.41% # Number of instructions fetched each cycle (Total)
system.switch_cpus.fetch.nisnDist::5           100550      0.51%     90.92% # Number of instructions fetched each cycle (Total)
system.switch_cpus.fetch.nisnDist::6           126154      0.64%     91.55% # Number of instructions fetched each cycle (Total)
system.switch_cpus.fetch.nisnDist::7           449120      2.27%     93.82% # Number of instructions fetched each cycle (Total)
system.switch_cpus.fetch.nisnDist::8          1223319      6.18%    100.00% # Number of instructions fetched each cycle (Total)
system.switch_cpus.fetch.nisnDist::overflows            0      0.00%    100.00% # Number of instructions fetched each cycle (Total)
system.switch_cpus.fetch.nisnDist::min_value            0                       # Number of instructions fetched each cycle (Total)
system.switch_cpus.fetch.nisnDist::max_value            8                       # Number of instructions fetched each cycle (Total)
system.switch_cpus.fetch.nisnDist::total     19802602                       # Number of instructions fetched each cycle (Total)
system.switch_cpus.fetch.branchRate          0.357820                       # Number of branch fetches per cycle
system.switch_cpus.fetch.rate                1.356991                       # Number of inst fetches per cycle
system.switch_cpus.itb.instHits                     0                       # ITB inst hits
system.switch_cpus.itb.instMisses                   0                       # ITB inst misses
system.switch_cpus.itb.readHits                     0                       # DTB read hits
system.switch_cpus.itb.readMisses                   0                       # DTB read misses
system.switch_cpus.itb.writeHits                    0                       # DTB write hits
system.switch_cpus.itb.writeMisses                  0                       # DTB write misses
system.switch_cpus.itb.inserts                      0                       # Number of times an entry is inserted into the TLB
system.switch_cpus.itb.flushTlb                     0                       # Number of times complete TLB was flushed
system.switch_cpus.itb.flushTlbMva                  0                       # Number of times TLB was flushed by MVA
system.switch_cpus.itb.flushTlbMvaAsid              0                       # Number of times TLB was flushed by MVA & ASID
system.switch_cpus.itb.flushTlbAsid                 0                       # Number of times TLB was flushed by ASID
system.switch_cpus.itb.flushedEntries               0                       # Number of entries that have been flushed from TLB
system.switch_cpus.itb.alignFaults                  0                       # Number of TLB faults due to alignment restrictions
system.switch_cpus.itb.prefetchFaults               0                       # Number of TLB faults due to prefetch
system.switch_cpus.itb.domainFaults                 0                       # Number of TLB faults due to domain restrictions
system.switch_cpus.itb.permsFaults                  0                       # Number of TLB faults due to permissions restrictions
system.switch_cpus.itb.readAccesses                 0                       # DTB read accesses
system.switch_cpus.itb.writeAccesses                0                       # DTB write accesses
system.switch_cpus.itb.instAccesses                 0                       # ITB inst accesses
system.switch_cpus.itb.hits                         0                       # Total TLB (inst and data) hits
system.switch_cpus.itb.misses                       0                       # Total TLB (inst and data) misses
system.switch_cpus.itb.accesses                     0                       # Total TLB (inst and data) accesses
system.switch_cpus.itb.stage2_mmu.stage2_tlb.instHits            0                       # ITB inst hits
system.switch_cpus.itb.stage2_mmu.stage2_tlb.instMisses            0                       # ITB inst misses
system.switch_cpus.itb.stage2_mmu.stage2_tlb.readHits            0                       # DTB read hits
system.switch_cpus.itb.stage2_mmu.stage2_tlb.readMisses            0                       # DTB read misses
system.switch_cpus.itb.stage2_mmu.stage2_tlb.writeHits            0                       # DTB write hits
system.switch_cpus.itb.stage2_mmu.stage2_tlb.writeMisses            0                       # DTB write misses
system.switch_cpus.itb.stage2_mmu.stage2_tlb.inserts            0                       # Number of times an entry is inserted into the TLB
system.switch_cpus.itb.stage2_mmu.stage2_tlb.flushTlb            0                       # Number of times complete TLB was flushed
system.switch_cpus.itb.stage2_mmu.stage2_tlb.flushTlbMva            0                       # Number of times TLB was flushed by MVA
system.switch_cpus.itb.stage2_mmu.stage2_tlb.flushTlbMvaAsid            0                       # Number of times TLB was flushed by MVA & ASID
system.switch_cpus.itb.stage2_mmu.stage2_tlb.flushTlbAsid            0                       # Number of times TLB was flushed by ASID
system.switch_cpus.itb.stage2_mmu.stage2_tlb.flushedEntries            0                       # Number of entries that have been flushed from TLB
system.switch_cpus.itb.stage2_mmu.stage2_tlb.alignFaults            0                       # Number of TLB faults due to alignment restrictions
system.switch_cpus.itb.stage2_mmu.stage2_tlb.prefetchFaults            0                       # Number of TLB faults due to prefetch
system.switch_cpus.itb.stage2_mmu.stage2_tlb.domainFaults            0                       # Number of TLB faults due to domain restrictions
system.switch_cpus.itb.stage2_mmu.stage2_tlb.permsFaults            0                       # Number of TLB faults due to permissions restrictions
system.switch_cpus.itb.stage2_mmu.stage2_tlb.readAccesses            0                       # DTB read accesses
system.switch_cpus.itb.stage2_mmu.stage2_tlb.writeAccesses            0                       # DTB write accesses
system.switch_cpus.itb.stage2_mmu.stage2_tlb.instAccesses            0                       # ITB inst accesses
system.switch_cpus.itb.stage2_mmu.stage2_tlb.hits            0                       # Total TLB (inst and data) hits
system.switch_cpus.itb.stage2_mmu.stage2_tlb.misses            0                       # Total TLB (inst and data) misses
system.switch_cpus.itb.stage2_mmu.stage2_tlb.accesses            0                       # Total TLB (inst and data) accesses
system.switch_cpus.itb.stage2_mmu.stage2_tlb.walker.walks            0                       # Table walker walks requested
system.switch_cpus.itb.stage2_mmu.stage2_tlb.walker.requestOrigin_Requested::Data            0                       # Table walker requests started/completed, data/inst
system.switch_cpus.itb.stage2_mmu.stage2_tlb.walker.requestOrigin_Requested::Inst            0                       # Table walker requests started/completed, data/inst
system.switch_cpus.itb.stage2_mmu.stage2_tlb.walker.requestOrigin_Requested::total            0                       # Table walker requests started/completed, data/inst
system.switch_cpus.itb.stage2_mmu.stage2_tlb.walker.requestOrigin_Completed::Data            0                       # Table walker requests started/completed, data/inst
system.switch_cpus.itb.stage2_mmu.stage2_tlb.walker.requestOrigin_Completed::Inst            0                       # Table walker requests started/completed, data/inst
system.switch_cpus.itb.stage2_mmu.stage2_tlb.walker.requestOrigin_Completed::total            0                       # Table walker requests started/completed, data/inst
system.switch_cpus.itb.stage2_mmu.stage2_tlb.walker.requestOrigin::total            0                       # Table walker requests started/completed, data/inst
system.switch_cpus.itb.stage2_mmu.stage2_tlb.walker.power_state.pwrStateResidencyTicks::UNDEFINED   7921040800                       # Cumulative time (in ticks) in various power states
system.switch_cpus.itb.walker.walks                 0                       # Table walker walks requested
system.switch_cpus.itb.walker.requestOrigin_Requested::Data            0                       # Table walker requests started/completed, data/inst
system.switch_cpus.itb.walker.requestOrigin_Requested::Inst            0                       # Table walker requests started/completed, data/inst
system.switch_cpus.itb.walker.requestOrigin_Requested::total            0                       # Table walker requests started/completed, data/inst
system.switch_cpus.itb.walker.requestOrigin_Completed::Data            0                       # Table walker requests started/completed, data/inst
system.switch_cpus.itb.walker.requestOrigin_Completed::Inst            0                       # Table walker requests started/completed, data/inst
system.switch_cpus.itb.walker.requestOrigin_Completed::total            0                       # Table walker requests started/completed, data/inst
system.switch_cpus.itb.walker.requestOrigin::total            0                       # Table walker requests started/completed, data/inst
system.switch_cpus.itb.walker.power_state.pwrStateResidencyTicks::UNDEFINED   7921040800                       # Cumulative time (in ticks) in various power states
system.switch_cpus.lsq0.forwLoads              182948                       # Number of loads that had data forwarded from stores
system.switch_cpus.lsq0.squashedLoads         3193708                       # Number of loads squashed
system.switch_cpus.lsq0.ignoredResponses           45                       # Number of memory responses ignored because the instruction is squashed
system.switch_cpus.lsq0.memOrderViolation          279                       # Number of memory ordering violations
system.switch_cpus.lsq0.squashedStores         643690                       # Number of stores squashed
system.switch_cpus.lsq0.rescheduledLoads          776                       # Number of loads that were rescheduled
system.switch_cpus.lsq0.blockedByCache         155373                       # Number of times an access to memory failed due to the cache being blocked
system.switch_cpus.power_state.pwrStateResidencyTicks::OFF   7921040800                       # Cumulative time (in ticks) in various power states
system.switch_cpus.rename.squashCycles         191762                       # Number of cycles rename is squashing
system.switch_cpus.rename.idleCycles          1515475                       # Number of cycles rename is idle
system.switch_cpus.rename.blockCycles         8203269                       # Number of cycles rename is blocking
system.switch_cpus.rename.serializeStallCycles            0                       # count of cycles rename stalledfor serializing inst
system.switch_cpus.rename.runCycles           4044196                       # Number of cycles rename is running
system.switch_cpus.rename.unblockCycles       5847900                       # Number of cycles rename is unblocking
system.switch_cpus.rename.renamedInsts       22230027                       # Number of instructions processed by rename
system.switch_cpus.rename.squashedInsts        610155                       # Number of squashed instructions processed by rename
system.switch_cpus.rename.ROBFullEvents         46017                       # Number of times rename has blocked due to ROB full
system.switch_cpus.rename.IQFullEvents         641620                       # Number of times rename has blocked due to IQ full
system.switch_cpus.rename.LQFullEvents           3164                       # Number of times rename has blocked due to LQ full
system.switch_cpus.rename.SQFullEvents            836                       # Number of times rename has blocked due to SQ full
system.switch_cpus.rename.fullRegistersEvents      5402219                       # Number of times there has been no free registers
system.switch_cpus.rename.renamedOperands     26982390                       # Number of destination operands rename has renamed
system.switch_cpus.rename.lookups            37909413                       # Number of register rename lookups that rename has made
system.switch_cpus.rename.intLookups         23933400                       # Number of integer rename lookups
system.switch_cpus.rename.vecLookups              263                       # Number of vector rename lookups
system.switch_cpus.rename.vecPredLookups           20                       # Number of vector predicate rename lookups
system.switch_cpus.rename.committedMaps      12972040                       # Number of HB maps that are committed
system.switch_cpus.rename.undoneMaps         14010377                       # Number of HB maps that are undone due to squashing
system.switch_cpus.rename.serializing               0                       # count of serializing insts renamed
system.switch_cpus.rename.tempSerializing            0                       # count of temporary serializing insts renamed
system.switch_cpus.rename.skidInsts           2879728                       # count of insts added to the skid buffer
system.switch_cpus.rob.reads                 36202054                       # The number of ROB reads
system.switch_cpus.rob.writes                45394996                       # The number of ROB writes
system.switch_cpus.thread_0.numInsts         10000000                       # Number of Instructions committed
system.switch_cpus.thread_0.numOps           10328742                       # Number of Ops committed
system.switch_cpus.thread_0.numMemRefs              0                       # Number of Memory References
system.tol2bus.trans_dist::ReadResp            531498                       # Transaction distribution
system.tol2bus.trans_dist::WritebackDirty       105195                       # Transaction distribution
system.tol2bus.trans_dist::WritebackClean       468030                       # Transaction distribution
system.tol2bus.trans_dist::CleanEvict          260312                       # Transaction distribution
system.tol2bus.trans_dist::HardPFReq           149573                       # Transaction distribution
system.tol2bus.trans_dist::ReadExReq            26787                       # Transaction distribution
system.tol2bus.trans_dist::ReadExResp           26789                       # Transaction distribution
system.tol2bus.trans_dist::ReadCleanReq             4                       # Transaction distribution
system.tol2bus.trans_dist::ReadSharedReq       531491                       # Transaction distribution
system.tol2bus.pkt_count_system.cpu.icache.mem_side_port::system.l2.cpu_side_port            8                       # Packet count per connected requestor and responder (bytes)
system.tol2bus.pkt_count_system.cpu.dcache.mem_side_port::system.l2.cpu_side_port      1674845                       # Packet count per connected requestor and responder (bytes)
system.tol2bus.pkt_count::total               1674853                       # Packet count per connected requestor and responder (bytes)
system.tol2bus.pkt_size_system.cpu.icache.mem_side_port::system.l2.cpu_side_port          512                       # Cumulative packet size per connected requestor and responder (bytes)
system.tol2bus.pkt_size_system.cpu.dcache.mem_side_port::system.l2.cpu_side_port    142920576                       # Cumulative packet size per connected requestor and responder (bytes)
system.tol2bus.pkt_size::total              142921088                       # Cumulative packet size per connected requestor and responder (bytes)
system.tol2bus.snoops                          424826                       # Total snoops (count)
system.tol2bus.snoopTraffic                   1912448                       # Total snoop traffic (bytes)
system.tol2bus.snoop_fanout::samples           983108                       # Request fanout histogram
system.tol2bus.snoop_fanout::mean            0.002783                       # Request fanout histogram
system.tol2bus.snoop_fanout::stdev           0.052681                       # Request fanout histogram
system.tol2bus.snoop_fanout::underflows             0      0.00%      0.00% # Request fanout histogram
system.tol2bus.snoop_fanout::0                 980372     99.72%     99.72% # Request fanout histogram
system.tol2bus.snoop_fanout::1                   2736      0.28%    100.00% # Request fanout histogram
system.tol2bus.snoop_fanout::2                      0      0.00%    100.00% # Request fanout histogram
system.tol2bus.snoop_fanout::3                      0      0.00%    100.00% # Request fanout histogram
system.tol2bus.snoop_fanout::4                      0      0.00%    100.00% # Request fanout histogram
system.tol2bus.snoop_fanout::overflows              0      0.00%    100.00% # Request fanout histogram
system.tol2bus.snoop_fanout::min_value              0                       # Request fanout histogram
system.tol2bus.snoop_fanout::max_value              1                       # Request fanout histogram
system.tol2bus.snoop_fanout::total             983108                       # Request fanout histogram
system.tol2bus.power_state.pwrStateResidencyTicks::UNDEFINED   7921040800                       # Cumulative time (in ticks) in various power states
system.tol2bus.reqLayer0.occupancy         1339880800                       # Layer occupancy (ticks)
system.tol2bus.reqLayer0.utilization             16.9                       # Layer utilization (%)
system.tol2bus.respLayer0.occupancy              8000                       # Layer occupancy (ticks)
system.tol2bus.respLayer0.utilization             0.0                       # Layer utilization (%)
system.tol2bus.respLayer1.occupancy        1116566000                       # Layer occupancy (ticks)
system.tol2bus.respLayer1.utilization            14.1                       # Layer utilization (%)
system.voltage_domain.voltage                       1                       # Voltage in Volts

---------- End Simulation Statistics   ----------
