
---------- Begin Simulation Statistics ----------
final_tick                               4663910641200                       # Number of ticks from beginning of simulation (restored from checkpoints and never reset)
host_inst_rate                                 154463                       # Simulator instruction rate (inst/s)
host_mem_usage                               16976080                       # Number of bytes of host memory used
host_op_rate                                   158716                       # Simulator op (including micro ops) rate (op/s)
host_seconds                                     6.47                       # Real time elapsed on the host
host_tick_rate                              138161409                       # Simulator tick rate (ticks/s)
sim_freq                                 1000000000000                       # Frequency of simulated ticks
sim_insts                                     1000027                       # Number of instructions simulated
sim_ops                                       1027568                       # Number of ops (including micro ops) simulated
sim_seconds                                  0.000894                       # Number of seconds simulated
sim_ticks                                   894496400                       # Number of ticks simulated
system.cpu.Branches                                 5                       # Number of branches fetched
system.cpu.committedInsts                          25                       # Number of instructions committed
system.cpu.committedOps                            25                       # Number of ops (including micro ops) committed
system.cpu.idle_fraction                            0                       # Percentage of idle cycles
system.cpu.not_idle_fraction                        1                       # Percentage of non-idle cycles
system.cpu.numCycles                               25                       # number of cpu cycles simulated
system.cpu.numWorkItemsCompleted                    0                       # number of work items this cpu completed
system.cpu.numWorkItemsStarted                      0                       # number of work items this cpu started
system.cpu.num_busy_cycles                         25                       # Number of busy cycles
system.cpu.num_cc_register_reads                   15                       # number of times the CC registers were read
system.cpu.num_cc_register_writes                  15                       # number of times the CC registers were written
system.cpu.num_conditional_control_insts            4                       # number of instructions that are conditional controls
system.cpu.num_fp_alu_accesses                      0                       # Number of float alu accesses
system.cpu.num_fp_insts                             0                       # number of float instructions
system.cpu.num_fp_register_reads                    0                       # number of times the floating registers were read
system.cpu.num_fp_register_writes                   0                       # number of times the floating registers were written
system.cpu.num_func_calls                           1                       # number of times a function call or return occured
system.cpu.num_idle_cycles                          0                       # Number of idle cycles
system.cpu.num_int_alu_accesses                    21                       # Number of integer alu accesses
system.cpu.num_int_insts                           21                       # number of integer instructions
system.cpu.num_int_register_reads                  31                       # number of times the integer registers were read
system.cpu.num_int_register_writes                 21                       # number of times the integer registers were written
system.cpu.num_load_insts                           6                       # Number of load instructions
system.cpu.num_mem_refs                             6                       # number of memory refs
system.cpu.num_store_insts                          0                       # Number of store instructions
system.cpu.num_vec_alu_accesses                     0                       # Number of vector alu accesses
system.cpu.num_vec_insts                            0                       # number of vector instructions
system.cpu.num_vec_register_reads                   0                       # number of times the vector registers were read
system.cpu.num_vec_register_writes                  0                       # number of times the vector registers were written
system.cpu.op_class::No_OpClass                     0      0.00%      0.00% # Class of executed instruction
system.cpu.op_class::IntAlu                        17     68.00%     68.00% # Class of executed instruction
system.cpu.op_class::IntMult                        2      8.00%     76.00% # Class of executed instruction
system.cpu.op_class::IntDiv                         0      0.00%     76.00% # Class of executed instruction
system.cpu.op_class::FloatAdd                       0      0.00%     76.00% # Class of executed instruction
system.cpu.op_class::FloatCmp                       0      0.00%     76.00% # Class of executed instruction
system.cpu.op_class::FloatCvt                       0      0.00%     76.00% # Class of executed instruction
system.cpu.op_class::FloatMult                      0      0.00%     76.00% # Class of executed instruction
system.cpu.op_class::FloatMultAcc                   0      0.00%     76.00% # Class of executed instruction
system.cpu.op_class::FloatDiv                       0      0.00%     76.00% # Class of executed instruction
system.cpu.op_class::FloatMisc                      0      0.00%     76.00% # Class of executed instruction
system.cpu.op_class::FloatSqrt                      0      0.00%     76.00% # Class of executed instruction
system.cpu.op_class::SimdAdd                        0      0.00%     76.00% # Class of executed instruction
system.cpu.op_class::SimdAddAcc                     0      0.00%     76.00% # Class of executed instruction
system.cpu.op_class::SimdAlu                        0      0.00%     76.00% # Class of executed instruction
system.cpu.op_class::SimdCmp                        0      0.00%     76.00% # Class of executed instruction
system.cpu.op_class::SimdCvt                        0      0.00%     76.00% # Class of executed instruction
system.cpu.op_class::SimdMisc                       0      0.00%     76.00% # Class of executed instruction
system.cpu.op_class::SimdMult                       0      0.00%     76.00% # Class of executed instruction
system.cpu.op_class::SimdMultAcc                    0      0.00%     76.00% # Class of executed instruction
system.cpu.op_class::SimdShift                      0      0.00%     76.00% # Class of executed instruction
system.cpu.op_class::SimdShiftAcc                   0      0.00%     76.00% # Class of executed instruction
system.cpu.op_class::SimdDiv                        0      0.00%     76.00% # Class of executed instruction
system.cpu.op_class::SimdSqrt                       0      0.00%     76.00% # Class of executed instruction
system.cpu.op_class::SimdFloatAdd                   0      0.00%     76.00% # Class of executed instruction
system.cpu.op_class::SimdFloatAlu                   0      0.00%     76.00% # Class of executed instruction
system.cpu.op_class::SimdFloatCmp                   0      0.00%     76.00% # Class of executed instruction
system.cpu.op_class::SimdFloatCvt                   0      0.00%     76.00% # Class of executed instruction
system.cpu.op_class::SimdFloatDiv                   0      0.00%     76.00% # Class of executed instruction
system.cpu.op_class::SimdFloatMisc                  0      0.00%     76.00% # Class of executed instruction
system.cpu.op_class::SimdFloatMult                  0      0.00%     76.00% # Class of executed instruction
system.cpu.op_class::SimdFloatMultAcc               0      0.00%     76.00% # Class of executed instruction
system.cpu.op_class::SimdFloatSqrt                  0      0.00%     76.00% # Class of executed instruction
system.cpu.op_class::SimdReduceAdd                  0      0.00%     76.00% # Class of executed instruction
system.cpu.op_class::SimdReduceAlu                  0      0.00%     76.00% # Class of executed instruction
system.cpu.op_class::SimdReduceCmp                  0      0.00%     76.00% # Class of executed instruction
system.cpu.op_class::SimdFloatReduceAdd             0      0.00%     76.00% # Class of executed instruction
system.cpu.op_class::SimdFloatReduceCmp             0      0.00%     76.00% # Class of executed instruction
system.cpu.op_class::SimdAes                        0      0.00%     76.00% # Class of executed instruction
system.cpu.op_class::SimdAesMix                     0      0.00%     76.00% # Class of executed instruction
system.cpu.op_class::SimdSha1Hash                   0      0.00%     76.00% # Class of executed instruction
system.cpu.op_class::SimdSha1Hash2                  0      0.00%     76.00% # Class of executed instruction
system.cpu.op_class::SimdSha256Hash                 0      0.00%     76.00% # Class of executed instruction
system.cpu.op_class::SimdSha256Hash2                0      0.00%     76.00% # Class of executed instruction
system.cpu.op_class::SimdShaSigma2                  0      0.00%     76.00% # Class of executed instruction
system.cpu.op_class::SimdShaSigma3                  0      0.00%     76.00% # Class of executed instruction
system.cpu.op_class::SimdPredAlu                    0      0.00%     76.00% # Class of executed instruction
system.cpu.op_class::MemRead                        6     24.00%    100.00% # Class of executed instruction
system.cpu.op_class::MemWrite                       0      0.00%    100.00% # Class of executed instruction
system.cpu.op_class::FloatMemRead                   0      0.00%    100.00% # Class of executed instruction
system.cpu.op_class::FloatMemWrite                  0      0.00%    100.00% # Class of executed instruction
system.cpu.op_class::IprAccess                      0      0.00%    100.00% # Class of executed instruction
system.cpu.op_class::InstPrefetch                   0      0.00%    100.00% # Class of executed instruction
system.cpu.op_class::total                         25                       # Class of executed instruction
system.cpu.workload.numSyscalls                     0                       # Number of system calls
system.membus.snoop_filter.hit_multi_requests            0                       # Number of requests hitting in the snoop filter with multiple (>1) holders of the requested data.
system.membus.snoop_filter.hit_multi_snoops            0                       # Number of snoops hitting in the snoop filter with multiple (>1) holders of the requested data.
system.membus.snoop_filter.hit_single_requests        17176                       # Number of requests hitting in the snoop filter with a single holder of the requested data.
system.membus.snoop_filter.hit_single_snoops            0                       # Number of snoops hitting in the snoop filter with a single holder of the requested data.
system.membus.snoop_filter.tot_requests         42621                       # Total number of requests made to the snoop filter.
system.membus.snoop_filter.tot_snoops               0                       # Total number of snoops made to the snoop filter.
system.switch_cpus.cc_regfile_reads            993534                       # number of cc regfile reads
system.switch_cpus.cc_regfile_writes           824985                       # number of cc regfile writes
system.switch_cpus.committedInsts             1000002                       # Number of Instructions Simulated
system.switch_cpus.committedOps               1027543                       # Number of Ops (including micro ops) Simulated
system.switch_cpus.cpi                       2.236212                       # CPI: Cycles Per Instruction
system.switch_cpus.cpi_total                 2.236212                       # CPI: Total CPI of All Threads
system.switch_cpus.idleCycles                    3478                       # Total number of cycles that the CPU has spent unscheduled due to idling
system.switch_cpus.iew.branchMispredicts        33007                       # Number of branch mispredicts detected at execute
system.switch_cpus.iew.exec_branches           461391                       # Number of branches executed
system.switch_cpus.iew.exec_nop                  3409                       # number of nop insts executed
system.switch_cpus.iew.exec_rate             0.870530                       # Inst execution rate
system.switch_cpus.iew.exec_refs               741750                       # number of memory reference insts executed
system.switch_cpus.iew.exec_stores             109980                       # Number of stores executed
system.switch_cpus.iew.exec_swp                     0                       # number of swp insts executed
system.switch_cpus.iew.iewBlockCycles          623993                       # Number of cycles IEW is blocking
system.switch_cpus.iew.iewDispLoadInsts        773873                       # Number of dispatched load instructions
system.switch_cpus.iew.iewDispNonSpecInsts            0                       # Number of dispatched non-speculative instructions
system.switch_cpus.iew.iewDispSquashedInsts            0                       # Number of squashed instructions skipped by dispatch
system.switch_cpus.iew.iewDispStoreInsts       161168                       # Number of dispatched store instructions
system.switch_cpus.iew.iewDispatchedInsts      2786653                       # Number of instructions dispatched to IQ
system.switch_cpus.iew.iewExecLoadInsts        631770                       # Number of load instructions executed
system.switch_cpus.iew.iewExecSquashedInsts        47664                       # Number of squashed instructions skipped in execute
system.switch_cpus.iew.iewExecutedInsts       1946692                       # Number of executed instructions
system.switch_cpus.iew.iewIQFullEvents            933                       # Number of times the IQ has become full, causing a stall
system.switch_cpus.iew.iewIdleCycles                0                       # Number of cycles IEW is idle
system.switch_cpus.iew.iewLSQFullEvents             0                       # Number of times the LSQ has become full, causing a stall
system.switch_cpus.iew.iewSquashCycles          30600                       # Number of cycles IEW is squashing
system.switch_cpus.iew.iewUnblockCycles          1719                       # Number of cycles IEW is unblocking
system.switch_cpus.iew.memOrderViolationEvents           46                       # Number of memory order violations
system.switch_cpus.iew.predictedNotTakenIncorrect        19919                       # Number of branches that were predicted not taken incorrectly
system.switch_cpus.iew.predictedTakenIncorrect        13088                       # Number of branches that were predicted taken incorrectly
system.switch_cpus.iew.wb_consumers           2211160                       # num instructions consuming a value
system.switch_cpus.iew.wb_count               1741643                       # cumulative count of insts written-back
system.switch_cpus.iew.wb_fanout             0.510539                       # average fanout of values written-back
system.switch_cpus.iew.wb_producers           1128884                       # num instructions producing a value
system.switch_cpus.iew.wb_rate               0.778835                       # insts written-back per cycle
system.switch_cpus.iew.wb_sent                1753314                       # cumulative count of insts sent to commit
system.switch_cpus.int_regfile_reads          2119482                       # number of integer regfile reads
system.switch_cpus.int_regfile_writes         1249359                       # number of integer regfile writes
system.switch_cpus.ipc                       0.447185                       # IPC: Instructions Per Cycle
system.switch_cpus.ipc_total                 0.447185                       # IPC: Total IPC of All Threads
system.switch_cpus.iq.FU_type_0::No_OpClass           13      0.00%      0.00% # Type of FU issued
system.switch_cpus.iq.FU_type_0::IntAlu       1205649     60.45%     60.45% # Type of FU issued
system.switch_cpus.iq.FU_type_0::IntMult         3269      0.16%     60.62% # Type of FU issued
system.switch_cpus.iq.FU_type_0::IntDiv          1355      0.07%     60.69% # Type of FU issued
system.switch_cpus.iq.FU_type_0::FloatAdd            0      0.00%     60.69% # Type of FU issued
system.switch_cpus.iq.FU_type_0::FloatCmp            0      0.00%     60.69% # Type of FU issued
system.switch_cpus.iq.FU_type_0::FloatCvt            0      0.00%     60.69% # Type of FU issued
system.switch_cpus.iq.FU_type_0::FloatMult            0      0.00%     60.69% # Type of FU issued
system.switch_cpus.iq.FU_type_0::FloatMultAcc            0      0.00%     60.69% # Type of FU issued
system.switch_cpus.iq.FU_type_0::FloatDiv            0      0.00%     60.69% # Type of FU issued
system.switch_cpus.iq.FU_type_0::FloatMisc            0      0.00%     60.69% # Type of FU issued
system.switch_cpus.iq.FU_type_0::FloatSqrt            0      0.00%     60.69% # Type of FU issued
system.switch_cpus.iq.FU_type_0::SimdAdd            0      0.00%     60.69% # Type of FU issued
system.switch_cpus.iq.FU_type_0::SimdAddAcc            0      0.00%     60.69% # Type of FU issued
system.switch_cpus.iq.FU_type_0::SimdAlu            0      0.00%     60.69% # Type of FU issued
system.switch_cpus.iq.FU_type_0::SimdCmp            0      0.00%     60.69% # Type of FU issued
system.switch_cpus.iq.FU_type_0::SimdCvt            0      0.00%     60.69% # Type of FU issued
system.switch_cpus.iq.FU_type_0::SimdMisc            0      0.00%     60.69% # Type of FU issued
system.switch_cpus.iq.FU_type_0::SimdMult            0      0.00%     60.69% # Type of FU issued
system.switch_cpus.iq.FU_type_0::SimdMultAcc            0      0.00%     60.69% # Type of FU issued
system.switch_cpus.iq.FU_type_0::SimdShift            0      0.00%     60.69% # Type of FU issued
system.switch_cpus.iq.FU_type_0::SimdShiftAcc            0      0.00%     60.69% # Type of FU issued
system.switch_cpus.iq.FU_type_0::SimdDiv            0      0.00%     60.69% # Type of FU issued
system.switch_cpus.iq.FU_type_0::SimdSqrt            0      0.00%     60.69% # Type of FU issued
system.switch_cpus.iq.FU_type_0::SimdFloatAdd            0      0.00%     60.69% # Type of FU issued
system.switch_cpus.iq.FU_type_0::SimdFloatAlu            0      0.00%     60.69% # Type of FU issued
system.switch_cpus.iq.FU_type_0::SimdFloatCmp            0      0.00%     60.69% # Type of FU issued
system.switch_cpus.iq.FU_type_0::SimdFloatCvt            0      0.00%     60.69% # Type of FU issued
system.switch_cpus.iq.FU_type_0::SimdFloatDiv            0      0.00%     60.69% # Type of FU issued
system.switch_cpus.iq.FU_type_0::SimdFloatMisc            0      0.00%     60.69% # Type of FU issued
system.switch_cpus.iq.FU_type_0::SimdFloatMult            0      0.00%     60.69% # Type of FU issued
system.switch_cpus.iq.FU_type_0::SimdFloatMultAcc            0      0.00%     60.69% # Type of FU issued
system.switch_cpus.iq.FU_type_0::SimdFloatSqrt            0      0.00%     60.69% # Type of FU issued
system.switch_cpus.iq.FU_type_0::SimdReduceAdd            0      0.00%     60.69% # Type of FU issued
system.switch_cpus.iq.FU_type_0::SimdReduceAlu            0      0.00%     60.69% # Type of FU issued
system.switch_cpus.iq.FU_type_0::SimdReduceCmp            0      0.00%     60.69% # Type of FU issued
system.switch_cpus.iq.FU_type_0::SimdFloatReduceAdd            0      0.00%     60.69% # Type of FU issued
system.switch_cpus.iq.FU_type_0::SimdFloatReduceCmp            0      0.00%     60.69% # Type of FU issued
system.switch_cpus.iq.FU_type_0::SimdAes            0      0.00%     60.69% # Type of FU issued
system.switch_cpus.iq.FU_type_0::SimdAesMix            0      0.00%     60.69% # Type of FU issued
system.switch_cpus.iq.FU_type_0::SimdSha1Hash            0      0.00%     60.69% # Type of FU issued
system.switch_cpus.iq.FU_type_0::SimdSha1Hash2            0      0.00%     60.69% # Type of FU issued
system.switch_cpus.iq.FU_type_0::SimdSha256Hash            0      0.00%     60.69% # Type of FU issued
system.switch_cpus.iq.FU_type_0::SimdSha256Hash2            0      0.00%     60.69% # Type of FU issued
system.switch_cpus.iq.FU_type_0::SimdShaSigma2            0      0.00%     60.69% # Type of FU issued
system.switch_cpus.iq.FU_type_0::SimdShaSigma3            0      0.00%     60.69% # Type of FU issued
system.switch_cpus.iq.FU_type_0::SimdPredAlu            0      0.00%     60.69% # Type of FU issued
system.switch_cpus.iq.FU_type_0::MemRead       667162     33.45%     94.14% # Type of FU issued
system.switch_cpus.iq.FU_type_0::MemWrite       116912      5.86%    100.00% # Type of FU issued
system.switch_cpus.iq.FU_type_0::FloatMemRead            0      0.00%    100.00% # Type of FU issued
system.switch_cpus.iq.FU_type_0::FloatMemWrite            0      0.00%    100.00% # Type of FU issued
system.switch_cpus.iq.FU_type_0::IprAccess            0      0.00%    100.00% # Type of FU issued
system.switch_cpus.iq.FU_type_0::InstPrefetch            0      0.00%    100.00% # Type of FU issued
system.switch_cpus.iq.FU_type_0::total        1994360                       # Type of FU issued
system.switch_cpus.iq.fp_alu_accesses               0                       # Number of floating point alu accesses
system.switch_cpus.iq.fp_inst_queue_reads            0                       # Number of floating instruction queue reads
system.switch_cpus.iq.fp_inst_queue_wakeup_accesses            0                       # Number of floating instruction queue wakeup accesses
system.switch_cpus.iq.fp_inst_queue_writes            0                       # Number of floating instruction queue writes
system.switch_cpus.iq.fu_busy_cnt              863905                       # FU busy when requested
system.switch_cpus.iq.fu_busy_rate           0.433174                       # FU busy rate (busy events/executed inst)
system.switch_cpus.iq.fu_full::No_OpClass            0      0.00%      0.00% # attempts to use FU when none available
system.switch_cpus.iq.fu_full::IntAlu          384402     44.50%     44.50% # attempts to use FU when none available
system.switch_cpus.iq.fu_full::IntMult            334      0.04%     44.53% # attempts to use FU when none available
system.switch_cpus.iq.fu_full::IntDiv               7      0.00%     44.54% # attempts to use FU when none available
system.switch_cpus.iq.fu_full::FloatAdd             0      0.00%     44.54% # attempts to use FU when none available
system.switch_cpus.iq.fu_full::FloatCmp             0      0.00%     44.54% # attempts to use FU when none available
system.switch_cpus.iq.fu_full::FloatCvt             0      0.00%     44.54% # attempts to use FU when none available
system.switch_cpus.iq.fu_full::FloatMult            0      0.00%     44.54% # attempts to use FU when none available
system.switch_cpus.iq.fu_full::FloatMultAcc            0      0.00%     44.54% # attempts to use FU when none available
system.switch_cpus.iq.fu_full::FloatDiv             0      0.00%     44.54% # attempts to use FU when none available
system.switch_cpus.iq.fu_full::FloatMisc            0      0.00%     44.54% # attempts to use FU when none available
system.switch_cpus.iq.fu_full::FloatSqrt            0      0.00%     44.54% # attempts to use FU when none available
system.switch_cpus.iq.fu_full::SimdAdd              0      0.00%     44.54% # attempts to use FU when none available
system.switch_cpus.iq.fu_full::SimdAddAcc            0      0.00%     44.54% # attempts to use FU when none available
system.switch_cpus.iq.fu_full::SimdAlu              0      0.00%     44.54% # attempts to use FU when none available
system.switch_cpus.iq.fu_full::SimdCmp              0      0.00%     44.54% # attempts to use FU when none available
system.switch_cpus.iq.fu_full::SimdCvt              0      0.00%     44.54% # attempts to use FU when none available
system.switch_cpus.iq.fu_full::SimdMisc             0      0.00%     44.54% # attempts to use FU when none available
system.switch_cpus.iq.fu_full::SimdMult             0      0.00%     44.54% # attempts to use FU when none available
system.switch_cpus.iq.fu_full::SimdMultAcc            0      0.00%     44.54% # attempts to use FU when none available
system.switch_cpus.iq.fu_full::SimdShift            0      0.00%     44.54% # attempts to use FU when none available
system.switch_cpus.iq.fu_full::SimdShiftAcc            0      0.00%     44.54% # attempts to use FU when none available
system.switch_cpus.iq.fu_full::SimdDiv              0      0.00%     44.54% # attempts to use FU when none available
system.switch_cpus.iq.fu_full::SimdSqrt             0      0.00%     44.54% # attempts to use FU when none available
system.switch_cpus.iq.fu_full::SimdFloatAdd            0      0.00%     44.54% # attempts to use FU when none available
system.switch_cpus.iq.fu_full::SimdFloatAlu            0      0.00%     44.54% # attempts to use FU when none available
system.switch_cpus.iq.fu_full::SimdFloatCmp            0      0.00%     44.54% # attempts to use FU when none available
system.switch_cpus.iq.fu_full::SimdFloatCvt            0      0.00%     44.54% # attempts to use FU when none available
system.switch_cpus.iq.fu_full::SimdFloatDiv            0      0.00%     44.54% # attempts to use FU when none available
system.switch_cpus.iq.fu_full::SimdFloatMisc            0      0.00%     44.54% # attempts to use FU when none available
system.switch_cpus.iq.fu_full::SimdFloatMult            0      0.00%     44.54% # attempts to use FU when none available
system.switch_cpus.iq.fu_full::SimdFloatMultAcc            0      0.00%     44.54% # attempts to use FU when none available
system.switch_cpus.iq.fu_full::SimdFloatSqrt            0      0.00%     44.54% # attempts to use FU when none available
system.switch_cpus.iq.fu_full::SimdReduceAdd            0      0.00%     44.54% # attempts to use FU when none available
system.switch_cpus.iq.fu_full::SimdReduceAlu            0      0.00%     44.54% # attempts to use FU when none available
system.switch_cpus.iq.fu_full::SimdReduceCmp            0      0.00%     44.54% # attempts to use FU when none available
system.switch_cpus.iq.fu_full::SimdFloatReduceAdd            0      0.00%     44.54% # attempts to use FU when none available
system.switch_cpus.iq.fu_full::SimdFloatReduceCmp            0      0.00%     44.54% # attempts to use FU when none available
system.switch_cpus.iq.fu_full::SimdAes              0      0.00%     44.54% # attempts to use FU when none available
system.switch_cpus.iq.fu_full::SimdAesMix            0      0.00%     44.54% # attempts to use FU when none available
system.switch_cpus.iq.fu_full::SimdSha1Hash            0      0.00%     44.54% # attempts to use FU when none available
system.switch_cpus.iq.fu_full::SimdSha1Hash2            0      0.00%     44.54% # attempts to use FU when none available
system.switch_cpus.iq.fu_full::SimdSha256Hash            0      0.00%     44.54% # attempts to use FU when none available
system.switch_cpus.iq.fu_full::SimdSha256Hash2            0      0.00%     44.54% # attempts to use FU when none available
system.switch_cpus.iq.fu_full::SimdShaSigma2            0      0.00%     44.54% # attempts to use FU when none available
system.switch_cpus.iq.fu_full::SimdShaSigma3            0      0.00%     44.54% # attempts to use FU when none available
system.switch_cpus.iq.fu_full::SimdPredAlu            0      0.00%     44.54% # attempts to use FU when none available
system.switch_cpus.iq.fu_full::MemRead         449681     52.05%     96.59% # attempts to use FU when none available
system.switch_cpus.iq.fu_full::MemWrite         29481      3.41%    100.00% # attempts to use FU when none available
system.switch_cpus.iq.fu_full::FloatMemRead            0      0.00%    100.00% # attempts to use FU when none available
system.switch_cpus.iq.fu_full::FloatMemWrite            0      0.00%    100.00% # attempts to use FU when none available
system.switch_cpus.iq.fu_full::IprAccess            0      0.00%    100.00% # attempts to use FU when none available
system.switch_cpus.iq.fu_full::InstPrefetch            0      0.00%    100.00% # attempts to use FU when none available
system.switch_cpus.iq.int_alu_accesses        2858252                       # Number of integer alu accesses
system.switch_cpus.iq.int_inst_queue_reads      7253964                       # Number of integer instruction queue reads
system.switch_cpus.iq.int_inst_queue_wakeup_accesses      1741643                       # Number of integer instruction queue wakeup accesses
system.switch_cpus.iq.int_inst_queue_writes      4538899                       # Number of integer instruction queue writes
system.switch_cpus.iq.iqInstsAdded            2783244                       # Number of instructions added to the IQ (excludes non-spec)
system.switch_cpus.iq.iqInstsIssued           1994360                       # Number of instructions issued
system.switch_cpus.iq.iqSquashedInstsExamined      1755613                       # Number of squashed instructions iterated over during squash; mainly for profiling
system.switch_cpus.iq.iqSquashedInstsIssued       168605                       # Number of squashed instructions issued
system.switch_cpus.iq.iqSquashedOperandsExamined      1842498                       # Number of squashed operands that are examined and possibly removed from graph
system.switch_cpus.iq.issued_per_cycle::samples      2232738                       # Number of insts issued each cycle
system.switch_cpus.iq.issued_per_cycle::mean     0.893235                       # Number of insts issued each cycle
system.switch_cpus.iq.issued_per_cycle::stdev     1.223429                       # Number of insts issued each cycle
system.switch_cpus.iq.issued_per_cycle::underflows            0      0.00%      0.00% # Number of insts issued each cycle
system.switch_cpus.iq.issued_per_cycle::0      1318662     59.06%     59.06% # Number of insts issued each cycle
system.switch_cpus.iq.issued_per_cycle::1       266311     11.93%     70.99% # Number of insts issued each cycle
system.switch_cpus.iq.issued_per_cycle::2       266818     11.95%     82.94% # Number of insts issued each cycle
system.switch_cpus.iq.issued_per_cycle::3       329492     14.76%     97.70% # Number of insts issued each cycle
system.switch_cpus.iq.issued_per_cycle::4        51338      2.30%     99.99% # Number of insts issued each cycle
system.switch_cpus.iq.issued_per_cycle::5          117      0.01%    100.00% # Number of insts issued each cycle
system.switch_cpus.iq.issued_per_cycle::6            0      0.00%    100.00% # Number of insts issued each cycle
system.switch_cpus.iq.issued_per_cycle::7            0      0.00%    100.00% # Number of insts issued each cycle
system.switch_cpus.iq.issued_per_cycle::8            0      0.00%    100.00% # Number of insts issued each cycle
system.switch_cpus.iq.issued_per_cycle::overflows            0      0.00%    100.00% # Number of insts issued each cycle
system.switch_cpus.iq.issued_per_cycle::min_value            0                       # Number of insts issued each cycle
system.switch_cpus.iq.issued_per_cycle::max_value            5                       # Number of insts issued each cycle
system.switch_cpus.iq.issued_per_cycle::total      2232738                       # Number of insts issued each cycle
system.switch_cpus.iq.rate                   0.891846                       # Inst issue rate
system.switch_cpus.iq.vec_alu_accesses              0                       # Number of vector alu accesses
system.switch_cpus.iq.vec_inst_queue_reads            0                       # Number of vector instruction queue reads
system.switch_cpus.iq.vec_inst_queue_wakeup_accesses            0                       # Number of vector instruction queue wakeup accesses
system.switch_cpus.iq.vec_inst_queue_writes            0                       # Number of vector instruction queue writes
system.switch_cpus.memDep0.conflictingLoads        46985                       # Number of conflicting loads.
system.switch_cpus.memDep0.conflictingStores        13093                       # Number of conflicting stores.
system.switch_cpus.memDep0.insertedLoads       773873                       # Number of loads inserted to the mem dependence unit.
system.switch_cpus.memDep0.insertedStores       161168                       # Number of stores inserted to the mem dependence unit.
system.switch_cpus.misc_regfile_reads         4939004                       # number of misc regfile reads
system.switch_cpus.misc_regfile_writes              1                       # number of misc regfile writes
system.switch_cpus.numCycles                  2236216                       # number of cpu cycles simulated
system.switch_cpus.numWorkItemsCompleted            0                       # number of work items this cpu completed
system.switch_cpus.numWorkItemsStarted              0                       # number of work items this cpu started
system.switch_cpus.timesIdled                      42                       # Number of times that the entire CPU went into an idle state and unscheduled itself
system.switch_cpus.vec_regfile_writes              44                       # number of vector regfile writes
system.tol2bus.snoop_filter.hit_multi_requests            0                       # Number of requests hitting in the snoop filter with multiple (>1) holders of the requested data.
system.tol2bus.snoop_filter.hit_multi_snoops            0                       # Number of snoops hitting in the snoop filter with multiple (>1) holders of the requested data.
system.tol2bus.snoop_filter.hit_single_requests        54124                       # Number of requests hitting in the snoop filter with a single holder of the requested data.
system.tol2bus.snoop_filter.hit_single_snoops          101                       # Number of snoops hitting in the snoop filter with a single holder of the requested data.
system.tol2bus.snoop_filter.tot_requests       108544                       # Total number of requests made to the snoop filter.
system.tol2bus.snoop_filter.tot_snoops            101                       # Total number of snoops made to the snoop filter.
system.clk_domain.clock                          1000                       # Clock period in ticks
system.cpu.dcache.demand_hits::.cpu.data            1                       # number of demand (read+write) hits
system.cpu.dcache.demand_hits::.switch_cpus.data       416990                       # number of demand (read+write) hits
system.cpu.dcache.demand_hits::total           416991                       # number of demand (read+write) hits
system.cpu.dcache.overall_hits::.cpu.data            1                       # number of overall hits
system.cpu.dcache.overall_hits::.switch_cpus.data       416990                       # number of overall hits
system.cpu.dcache.overall_hits::total          416991                       # number of overall hits
system.cpu.dcache.demand_misses::.cpu.data            5                       # number of demand (read+write) misses
system.cpu.dcache.demand_misses::.switch_cpus.data       110859                       # number of demand (read+write) misses
system.cpu.dcache.demand_misses::total         110864                       # number of demand (read+write) misses
system.cpu.dcache.overall_misses::.cpu.data            5                       # number of overall misses
system.cpu.dcache.overall_misses::.switch_cpus.data       110859                       # number of overall misses
system.cpu.dcache.overall_misses::total        110864                       # number of overall misses
system.cpu.dcache.demand_miss_latency::.switch_cpus.data   5525432026                       # number of demand (read+write) miss cycles
system.cpu.dcache.demand_miss_latency::total   5525432026                       # number of demand (read+write) miss cycles
system.cpu.dcache.overall_miss_latency::.switch_cpus.data   5525432026                       # number of overall miss cycles
system.cpu.dcache.overall_miss_latency::total   5525432026                       # number of overall miss cycles
system.cpu.dcache.demand_accesses::.cpu.data            6                       # number of demand (read+write) accesses
system.cpu.dcache.demand_accesses::.switch_cpus.data       527849                       # number of demand (read+write) accesses
system.cpu.dcache.demand_accesses::total       527855                       # number of demand (read+write) accesses
system.cpu.dcache.overall_accesses::.cpu.data            6                       # number of overall (read+write) accesses
system.cpu.dcache.overall_accesses::.switch_cpus.data       527849                       # number of overall (read+write) accesses
system.cpu.dcache.overall_accesses::total       527855                       # number of overall (read+write) accesses
system.cpu.dcache.demand_miss_rate::.cpu.data     0.833333                       # miss rate for demand accesses
system.cpu.dcache.demand_miss_rate::.switch_cpus.data     0.210020                       # miss rate for demand accesses
system.cpu.dcache.demand_miss_rate::total     0.210027                       # miss rate for demand accesses
system.cpu.dcache.overall_miss_rate::.cpu.data     0.833333                       # miss rate for overall accesses
system.cpu.dcache.overall_miss_rate::.switch_cpus.data     0.210020                       # miss rate for overall accesses
system.cpu.dcache.overall_miss_rate::total     0.210027                       # miss rate for overall accesses
system.cpu.dcache.demand_avg_miss_latency::.switch_cpus.data 49841.979686                       # average overall miss latency
system.cpu.dcache.demand_avg_miss_latency::total 49839.731798                       # average overall miss latency
system.cpu.dcache.overall_avg_miss_latency::.switch_cpus.data 49841.979686                       # average overall miss latency
system.cpu.dcache.overall_avg_miss_latency::total 49839.731798                       # average overall miss latency
system.cpu.dcache.blocked_cycles::no_mshrs       456749                       # number of cycles access was blocked
system.cpu.dcache.blocked_cycles::no_targets       104195                       # number of cycles access was blocked
system.cpu.dcache.blocked::no_mshrs             21985                       # number of cycles access was blocked
system.cpu.dcache.blocked::no_targets            1436                       # number of cycles access was blocked
system.cpu.dcache.avg_blocked_cycles::no_mshrs    20.775483                       # average number of cycles each access was blocked
system.cpu.dcache.avg_blocked_cycles::no_targets    72.559192                       # average number of cycles each access was blocked
system.cpu.dcache.writebacks::.writebacks        54124                       # number of writebacks
system.cpu.dcache.writebacks::total             54124                       # number of writebacks
system.cpu.dcache.demand_mshr_hits::.switch_cpus.data        56484                       # number of demand (read+write) MSHR hits
system.cpu.dcache.demand_mshr_hits::total        56484                       # number of demand (read+write) MSHR hits
system.cpu.dcache.overall_mshr_hits::.switch_cpus.data        56484                       # number of overall MSHR hits
system.cpu.dcache.overall_mshr_hits::total        56484                       # number of overall MSHR hits
system.cpu.dcache.demand_mshr_misses::.switch_cpus.data        54375                       # number of demand (read+write) MSHR misses
system.cpu.dcache.demand_mshr_misses::total        54375                       # number of demand (read+write) MSHR misses
system.cpu.dcache.overall_mshr_misses::.switch_cpus.data        54375                       # number of overall MSHR misses
system.cpu.dcache.overall_mshr_misses::total        54375                       # number of overall MSHR misses
system.cpu.dcache.demand_mshr_miss_latency::.switch_cpus.data   2472524756                       # number of demand (read+write) MSHR miss cycles
system.cpu.dcache.demand_mshr_miss_latency::total   2472524756                       # number of demand (read+write) MSHR miss cycles
system.cpu.dcache.overall_mshr_miss_latency::.switch_cpus.data   2472524756                       # number of overall MSHR miss cycles
system.cpu.dcache.overall_mshr_miss_latency::total   2472524756                       # number of overall MSHR miss cycles
system.cpu.dcache.demand_mshr_miss_rate::.switch_cpus.data     0.103012                       # mshr miss rate for demand accesses
system.cpu.dcache.demand_mshr_miss_rate::total     0.103011                       # mshr miss rate for demand accesses
system.cpu.dcache.overall_mshr_miss_rate::.switch_cpus.data     0.103012                       # mshr miss rate for overall accesses
system.cpu.dcache.overall_mshr_miss_rate::total     0.103011                       # mshr miss rate for overall accesses
system.cpu.dcache.demand_avg_mshr_miss_latency::.switch_cpus.data 45471.719651                       # average overall mshr miss latency
system.cpu.dcache.demand_avg_mshr_miss_latency::total 45471.719651                       # average overall mshr miss latency
system.cpu.dcache.overall_avg_mshr_miss_latency::.switch_cpus.data 45471.719651                       # average overall mshr miss latency
system.cpu.dcache.overall_avg_mshr_miss_latency::total 45471.719651                       # average overall mshr miss latency
system.cpu.dcache.replacements                  54124                       # number of replacements
system.cpu.dcache.ReadReq_hits::.cpu.data            1                       # number of ReadReq hits
system.cpu.dcache.ReadReq_hits::.switch_cpus.data       365004                       # number of ReadReq hits
system.cpu.dcache.ReadReq_hits::total          365005                       # number of ReadReq hits
system.cpu.dcache.ReadReq_misses::.cpu.data            5                       # number of ReadReq misses
system.cpu.dcache.ReadReq_misses::.switch_cpus.data        99709                       # number of ReadReq misses
system.cpu.dcache.ReadReq_misses::total         99714                       # number of ReadReq misses
system.cpu.dcache.ReadReq_miss_latency::.switch_cpus.data   5315796800                       # number of ReadReq miss cycles
system.cpu.dcache.ReadReq_miss_latency::total   5315796800                       # number of ReadReq miss cycles
system.cpu.dcache.ReadReq_accesses::.cpu.data            6                       # number of ReadReq accesses(hits+misses)
system.cpu.dcache.ReadReq_accesses::.switch_cpus.data       464713                       # number of ReadReq accesses(hits+misses)
system.cpu.dcache.ReadReq_accesses::total       464719                       # number of ReadReq accesses(hits+misses)
system.cpu.dcache.ReadReq_miss_rate::.cpu.data     0.833333                       # miss rate for ReadReq accesses
system.cpu.dcache.ReadReq_miss_rate::.switch_cpus.data     0.214560                       # miss rate for ReadReq accesses
system.cpu.dcache.ReadReq_miss_rate::total     0.214568                       # miss rate for ReadReq accesses
system.cpu.dcache.ReadReq_avg_miss_latency::.switch_cpus.data 53313.109148                       # average ReadReq miss latency
system.cpu.dcache.ReadReq_avg_miss_latency::total 53310.435847                       # average ReadReq miss latency
system.cpu.dcache.ReadReq_mshr_hits::.switch_cpus.data        48959                       # number of ReadReq MSHR hits
system.cpu.dcache.ReadReq_mshr_hits::total        48959                       # number of ReadReq MSHR hits
system.cpu.dcache.ReadReq_mshr_misses::.switch_cpus.data        50750                       # number of ReadReq MSHR misses
system.cpu.dcache.ReadReq_mshr_misses::total        50750                       # number of ReadReq MSHR misses
system.cpu.dcache.ReadReq_mshr_miss_latency::.switch_cpus.data   2408246800                       # number of ReadReq MSHR miss cycles
system.cpu.dcache.ReadReq_mshr_miss_latency::total   2408246800                       # number of ReadReq MSHR miss cycles
system.cpu.dcache.ReadReq_mshr_miss_rate::.switch_cpus.data     0.109207                       # mshr miss rate for ReadReq accesses
system.cpu.dcache.ReadReq_mshr_miss_rate::total     0.109206                       # mshr miss rate for ReadReq accesses
system.cpu.dcache.ReadReq_avg_mshr_miss_latency::.switch_cpus.data 47453.138916                       # average ReadReq mshr miss latency
system.cpu.dcache.ReadReq_avg_mshr_miss_latency::total 47453.138916                       # average ReadReq mshr miss latency
system.cpu.dcache.WriteReq_hits::.switch_cpus.data        51986                       # number of WriteReq hits
system.cpu.dcache.WriteReq_hits::total          51986                       # number of WriteReq hits
system.cpu.dcache.WriteReq_misses::.switch_cpus.data        11150                       # number of WriteReq misses
system.cpu.dcache.WriteReq_misses::total        11150                       # number of WriteReq misses
system.cpu.dcache.WriteReq_miss_latency::.switch_cpus.data    209635226                       # number of WriteReq miss cycles
system.cpu.dcache.WriteReq_miss_latency::total    209635226                       # number of WriteReq miss cycles
system.cpu.dcache.WriteReq_accesses::.switch_cpus.data        63136                       # number of WriteReq accesses(hits+misses)
system.cpu.dcache.WriteReq_accesses::total        63136                       # number of WriteReq accesses(hits+misses)
system.cpu.dcache.WriteReq_miss_rate::.switch_cpus.data     0.176603                       # miss rate for WriteReq accesses
system.cpu.dcache.WriteReq_miss_rate::total     0.176603                       # miss rate for WriteReq accesses
system.cpu.dcache.WriteReq_avg_miss_latency::.switch_cpus.data 18801.365561                       # average WriteReq miss latency
system.cpu.dcache.WriteReq_avg_miss_latency::total 18801.365561                       # average WriteReq miss latency
system.cpu.dcache.WriteReq_mshr_hits::.switch_cpus.data         7525                       # number of WriteReq MSHR hits
system.cpu.dcache.WriteReq_mshr_hits::total         7525                       # number of WriteReq MSHR hits
system.cpu.dcache.WriteReq_mshr_misses::.switch_cpus.data         3625                       # number of WriteReq MSHR misses
system.cpu.dcache.WriteReq_mshr_misses::total         3625                       # number of WriteReq MSHR misses
system.cpu.dcache.WriteReq_mshr_miss_latency::.switch_cpus.data     64277956                       # number of WriteReq MSHR miss cycles
system.cpu.dcache.WriteReq_mshr_miss_latency::total     64277956                       # number of WriteReq MSHR miss cycles
system.cpu.dcache.WriteReq_mshr_miss_rate::.switch_cpus.data     0.057416                       # mshr miss rate for WriteReq accesses
system.cpu.dcache.WriteReq_mshr_miss_rate::total     0.057416                       # mshr miss rate for WriteReq accesses
system.cpu.dcache.WriteReq_avg_mshr_miss_latency::.switch_cpus.data 17731.849931                       # average WriteReq mshr miss latency
system.cpu.dcache.WriteReq_avg_mshr_miss_latency::total 17731.849931                       # average WriteReq mshr miss latency
system.cpu.dcache.power_state.pwrStateResidencyTicks::UNDEFINED 4663910641200                       # Cumulative time (in ticks) in various power states
system.cpu.dcache.tags.tagsinuse           253.535380                       # Cycle average of tags in use
system.cpu.dcache.tags.total_refs              454541                       # Total number of references to valid blocks.
system.cpu.dcache.tags.sampled_refs             54124                       # Sample count of references to valid blocks.
system.cpu.dcache.tags.avg_refs              8.398141                       # Average number of references to valid blocks.
system.cpu.dcache.tags.warmup_cycle      4663016145600                       # Cycle when the warmup percentage was hit.
system.cpu.dcache.tags.occ_blocks::.cpu.data     0.135462                       # Average occupied blocks per requestor
system.cpu.dcache.tags.occ_blocks::.switch_cpus.data   253.399918                       # Average occupied blocks per requestor
system.cpu.dcache.tags.occ_percent::.cpu.data     0.000529                       # Average percentage of cache occupancy
system.cpu.dcache.tags.occ_percent::.switch_cpus.data     0.989843                       # Average percentage of cache occupancy
system.cpu.dcache.tags.occ_percent::total     0.990373                       # Average percentage of cache occupancy
system.cpu.dcache.tags.occ_task_id_blocks::1024          256                       # Occupied blocks per task id
system.cpu.dcache.tags.age_task_id_blocks_1024::0          212                       # Occupied blocks per task id
system.cpu.dcache.tags.age_task_id_blocks_1024::1           43                       # Occupied blocks per task id
system.cpu.dcache.tags.age_task_id_blocks_1024::2            1                       # Occupied blocks per task id
system.cpu.dcache.tags.occ_task_id_percent::1024            1                       # Percentage of cache occupancy per task id
system.cpu.dcache.tags.tag_accesses           4277220                       # Number of tag accesses
system.cpu.dcache.tags.data_accesses          4277220                       # Number of data accesses
system.cpu.dcache.tags.power_state.pwrStateResidencyTicks::UNDEFINED 4663910641200                       # Cumulative time (in ticks) in various power states
system.cpu.dtb.instHits                             0                       # ITB inst hits
system.cpu.dtb.instMisses                           0                       # ITB inst misses
system.cpu.dtb.readHits                             0                       # DTB read hits
system.cpu.dtb.readMisses                           0                       # DTB read misses
system.cpu.dtb.writeHits                            0                       # DTB write hits
system.cpu.dtb.writeMisses                          0                       # DTB write misses
system.cpu.dtb.inserts                              0                       # Number of times an entry is inserted into the TLB
system.cpu.dtb.flushTlb                             2                       # Number of times complete TLB was flushed
system.cpu.dtb.flushTlbMva                          0                       # Number of times TLB was flushed by MVA
system.cpu.dtb.flushTlbMvaAsid                      0                       # Number of times TLB was flushed by MVA & ASID
system.cpu.dtb.flushTlbAsid                         0                       # Number of times TLB was flushed by ASID
system.cpu.dtb.flushedEntries                       0                       # Number of entries that have been flushed from TLB
system.cpu.dtb.alignFaults                          0                       # Number of TLB faults due to alignment restrictions
system.cpu.dtb.prefetchFaults                       0                       # Number of TLB faults due to prefetch
system.cpu.dtb.domainFaults                         0                       # Number of TLB faults due to domain restrictions
system.cpu.dtb.permsFaults                          0                       # Number of TLB faults due to permissions restrictions
system.cpu.dtb.readAccesses                         0                       # DTB read accesses
system.cpu.dtb.writeAccesses                        0                       # DTB write accesses
system.cpu.dtb.instAccesses                         0                       # ITB inst accesses
system.cpu.dtb.hits                                 0                       # Total TLB (inst and data) hits
system.cpu.dtb.misses                               0                       # Total TLB (inst and data) misses
system.cpu.dtb.accesses                             0                       # Total TLB (inst and data) accesses
system.cpu.dtb.stage2_mmu.stage2_tlb.instHits            0                       # ITB inst hits
system.cpu.dtb.stage2_mmu.stage2_tlb.instMisses            0                       # ITB inst misses
system.cpu.dtb.stage2_mmu.stage2_tlb.readHits            0                       # DTB read hits
system.cpu.dtb.stage2_mmu.stage2_tlb.readMisses            0                       # DTB read misses
system.cpu.dtb.stage2_mmu.stage2_tlb.writeHits            0                       # DTB write hits
system.cpu.dtb.stage2_mmu.stage2_tlb.writeMisses            0                       # DTB write misses
system.cpu.dtb.stage2_mmu.stage2_tlb.inserts            0                       # Number of times an entry is inserted into the TLB
system.cpu.dtb.stage2_mmu.stage2_tlb.flushTlb            0                       # Number of times complete TLB was flushed
system.cpu.dtb.stage2_mmu.stage2_tlb.flushTlbMva            0                       # Number of times TLB was flushed by MVA
system.cpu.dtb.stage2_mmu.stage2_tlb.flushTlbMvaAsid            0                       # Number of times TLB was flushed by MVA & ASID
system.cpu.dtb.stage2_mmu.stage2_tlb.flushTlbAsid            0                       # Number of times TLB was flushed by ASID
system.cpu.dtb.stage2_mmu.stage2_tlb.flushedEntries            0                       # Number of entries that have been flushed from TLB
system.cpu.dtb.stage2_mmu.stage2_tlb.alignFaults            0                       # Number of TLB faults due to alignment restrictions
system.cpu.dtb.stage2_mmu.stage2_tlb.prefetchFaults            0                       # Number of TLB faults due to prefetch
system.cpu.dtb.stage2_mmu.stage2_tlb.domainFaults            0                       # Number of TLB faults due to domain restrictions
system.cpu.dtb.stage2_mmu.stage2_tlb.permsFaults            0                       # Number of TLB faults due to permissions restrictions
system.cpu.dtb.stage2_mmu.stage2_tlb.readAccesses            0                       # DTB read accesses
system.cpu.dtb.stage2_mmu.stage2_tlb.writeAccesses            0                       # DTB write accesses
system.cpu.dtb.stage2_mmu.stage2_tlb.instAccesses            0                       # ITB inst accesses
system.cpu.dtb.stage2_mmu.stage2_tlb.hits            0                       # Total TLB (inst and data) hits
system.cpu.dtb.stage2_mmu.stage2_tlb.misses            0                       # Total TLB (inst and data) misses
system.cpu.dtb.stage2_mmu.stage2_tlb.accesses            0                       # Total TLB (inst and data) accesses
system.cpu.dtb.stage2_mmu.stage2_tlb.walker.walks            0                       # Table walker walks requested
system.cpu.dtb.stage2_mmu.stage2_tlb.walker.requestOrigin_Requested::Data            0                       # Table walker requests started/completed, data/inst
system.cpu.dtb.stage2_mmu.stage2_tlb.walker.requestOrigin_Requested::Inst            0                       # Table walker requests started/completed, data/inst
system.cpu.dtb.stage2_mmu.stage2_tlb.walker.requestOrigin_Requested::total            0                       # Table walker requests started/completed, data/inst
system.cpu.dtb.stage2_mmu.stage2_tlb.walker.requestOrigin_Completed::Data            0                       # Table walker requests started/completed, data/inst
system.cpu.dtb.stage2_mmu.stage2_tlb.walker.requestOrigin_Completed::Inst            0                       # Table walker requests started/completed, data/inst
system.cpu.dtb.stage2_mmu.stage2_tlb.walker.requestOrigin_Completed::total            0                       # Table walker requests started/completed, data/inst
system.cpu.dtb.stage2_mmu.stage2_tlb.walker.requestOrigin::total            0                       # Table walker requests started/completed, data/inst
system.cpu.dtb.stage2_mmu.stage2_tlb.walker.power_state.pwrStateResidencyTicks::UNDEFINED 4663910641200                       # Cumulative time (in ticks) in various power states
system.cpu.dtb.walker.walks                         0                       # Table walker walks requested
system.cpu.dtb.walker.requestOrigin_Requested::Data            0                       # Table walker requests started/completed, data/inst
system.cpu.dtb.walker.requestOrigin_Requested::Inst            0                       # Table walker requests started/completed, data/inst
system.cpu.dtb.walker.requestOrigin_Requested::total            0                       # Table walker requests started/completed, data/inst
system.cpu.dtb.walker.requestOrigin_Completed::Data            0                       # Table walker requests started/completed, data/inst
system.cpu.dtb.walker.requestOrigin_Completed::Inst            0                       # Table walker requests started/completed, data/inst
system.cpu.dtb.walker.requestOrigin_Completed::total            0                       # Table walker requests started/completed, data/inst
system.cpu.dtb.walker.requestOrigin::total            0                       # Table walker requests started/completed, data/inst
system.cpu.dtb.walker.power_state.pwrStateResidencyTicks::UNDEFINED 4663910641200                       # Cumulative time (in ticks) in various power states
system.cpu.dtb_walker_cache.blocked_cycles::no_mshrs            0                       # number of cycles access was blocked
system.cpu.dtb_walker_cache.blocked_cycles::no_targets            0                       # number of cycles access was blocked
system.cpu.dtb_walker_cache.blocked::no_mshrs            0                       # number of cycles access was blocked
system.cpu.dtb_walker_cache.blocked::no_targets            0                       # number of cycles access was blocked
system.cpu.dtb_walker_cache.avg_blocked_cycles::no_mshrs          nan                       # average number of cycles each access was blocked
system.cpu.dtb_walker_cache.avg_blocked_cycles::no_targets          nan                       # average number of cycles each access was blocked
system.cpu.dtb_walker_cache.replacements            0                       # number of replacements
system.cpu.dtb_walker_cache.power_state.pwrStateResidencyTicks::UNDEFINED 4663910641200                       # Cumulative time (in ticks) in various power states
system.cpu.dtb_walker_cache.tags.tagsinuse            0                       # Cycle average of tags in use
system.cpu.dtb_walker_cache.tags.total_refs            0                       # Total number of references to valid blocks.
system.cpu.dtb_walker_cache.tags.sampled_refs            0                       # Sample count of references to valid blocks.
system.cpu.dtb_walker_cache.tags.avg_refs          nan                       # Average number of references to valid blocks.
system.cpu.dtb_walker_cache.tags.warmup_cycle            0                       # Cycle when the warmup percentage was hit.
system.cpu.dtb_walker_cache.tags.tag_accesses            0                       # Number of tag accesses
system.cpu.dtb_walker_cache.tags.data_accesses            0                       # Number of data accesses
system.cpu.dtb_walker_cache.tags.power_state.pwrStateResidencyTicks::UNDEFINED 4663910641200                       # Cumulative time (in ticks) in various power states
system.cpu.icache.demand_hits::.cpu.inst           22                       # number of demand (read+write) hits
system.cpu.icache.demand_hits::.switch_cpus.inst       670056                       # number of demand (read+write) hits
system.cpu.icache.demand_hits::total           670078                       # number of demand (read+write) hits
system.cpu.icache.overall_hits::.cpu.inst           22                       # number of overall hits
system.cpu.icache.overall_hits::.switch_cpus.inst       670056                       # number of overall hits
system.cpu.icache.overall_hits::total          670078                       # number of overall hits
system.cpu.icache.demand_misses::.cpu.inst            3                       # number of demand (read+write) misses
system.cpu.icache.demand_misses::.switch_cpus.inst           58                       # number of demand (read+write) misses
system.cpu.icache.demand_misses::total             61                       # number of demand (read+write) misses
system.cpu.icache.overall_misses::.cpu.inst            3                       # number of overall misses
system.cpu.icache.overall_misses::.switch_cpus.inst           58                       # number of overall misses
system.cpu.icache.overall_misses::total            61                       # number of overall misses
system.cpu.icache.demand_miss_latency::.switch_cpus.inst      3768400                       # number of demand (read+write) miss cycles
system.cpu.icache.demand_miss_latency::total      3768400                       # number of demand (read+write) miss cycles
system.cpu.icache.overall_miss_latency::.switch_cpus.inst      3768400                       # number of overall miss cycles
system.cpu.icache.overall_miss_latency::total      3768400                       # number of overall miss cycles
system.cpu.icache.demand_accesses::.cpu.inst           25                       # number of demand (read+write) accesses
system.cpu.icache.demand_accesses::.switch_cpus.inst       670114                       # number of demand (read+write) accesses
system.cpu.icache.demand_accesses::total       670139                       # number of demand (read+write) accesses
system.cpu.icache.overall_accesses::.cpu.inst           25                       # number of overall (read+write) accesses
system.cpu.icache.overall_accesses::.switch_cpus.inst       670114                       # number of overall (read+write) accesses
system.cpu.icache.overall_accesses::total       670139                       # number of overall (read+write) accesses
system.cpu.icache.demand_miss_rate::.cpu.inst     0.120000                       # miss rate for demand accesses
system.cpu.icache.demand_miss_rate::.switch_cpus.inst     0.000087                       # miss rate for demand accesses
system.cpu.icache.demand_miss_rate::total     0.000091                       # miss rate for demand accesses
system.cpu.icache.overall_miss_rate::.cpu.inst     0.120000                       # miss rate for overall accesses
system.cpu.icache.overall_miss_rate::.switch_cpus.inst     0.000087                       # miss rate for overall accesses
system.cpu.icache.overall_miss_rate::total     0.000091                       # miss rate for overall accesses
system.cpu.icache.demand_avg_miss_latency::.switch_cpus.inst 64972.413793                       # average overall miss latency
system.cpu.icache.demand_avg_miss_latency::total 61777.049180                       # average overall miss latency
system.cpu.icache.overall_avg_miss_latency::.switch_cpus.inst 64972.413793                       # average overall miss latency
system.cpu.icache.overall_avg_miss_latency::total 61777.049180                       # average overall miss latency
system.cpu.icache.blocked_cycles::no_mshrs          874                       # number of cycles access was blocked
system.cpu.icache.blocked_cycles::no_targets            0                       # number of cycles access was blocked
system.cpu.icache.blocked::no_mshrs                 6                       # number of cycles access was blocked
system.cpu.icache.blocked::no_targets               0                       # number of cycles access was blocked
system.cpu.icache.avg_blocked_cycles::no_mshrs   145.666667                       # average number of cycles each access was blocked
system.cpu.icache.avg_blocked_cycles::no_targets          nan                       # average number of cycles each access was blocked
system.cpu.icache.demand_mshr_hits::.switch_cpus.inst           21                       # number of demand (read+write) MSHR hits
system.cpu.icache.demand_mshr_hits::total           21                       # number of demand (read+write) MSHR hits
system.cpu.icache.overall_mshr_hits::.switch_cpus.inst           21                       # number of overall MSHR hits
system.cpu.icache.overall_mshr_hits::total           21                       # number of overall MSHR hits
system.cpu.icache.demand_mshr_misses::.switch_cpus.inst           37                       # number of demand (read+write) MSHR misses
system.cpu.icache.demand_mshr_misses::total           37                       # number of demand (read+write) MSHR misses
system.cpu.icache.overall_mshr_misses::.switch_cpus.inst           37                       # number of overall MSHR misses
system.cpu.icache.overall_mshr_misses::total           37                       # number of overall MSHR misses
system.cpu.icache.demand_mshr_miss_latency::.switch_cpus.inst      2797600                       # number of demand (read+write) MSHR miss cycles
system.cpu.icache.demand_mshr_miss_latency::total      2797600                       # number of demand (read+write) MSHR miss cycles
system.cpu.icache.overall_mshr_miss_latency::.switch_cpus.inst      2797600                       # number of overall MSHR miss cycles
system.cpu.icache.overall_mshr_miss_latency::total      2797600                       # number of overall MSHR miss cycles
system.cpu.icache.demand_mshr_miss_rate::.switch_cpus.inst     0.000055                       # mshr miss rate for demand accesses
system.cpu.icache.demand_mshr_miss_rate::total     0.000055                       # mshr miss rate for demand accesses
system.cpu.icache.overall_mshr_miss_rate::.switch_cpus.inst     0.000055                       # mshr miss rate for overall accesses
system.cpu.icache.overall_mshr_miss_rate::total     0.000055                       # mshr miss rate for overall accesses
system.cpu.icache.demand_avg_mshr_miss_latency::.switch_cpus.inst 75610.810811                       # average overall mshr miss latency
system.cpu.icache.demand_avg_mshr_miss_latency::total 75610.810811                       # average overall mshr miss latency
system.cpu.icache.overall_avg_mshr_miss_latency::.switch_cpus.inst 75610.810811                       # average overall mshr miss latency
system.cpu.icache.overall_avg_mshr_miss_latency::total 75610.810811                       # average overall mshr miss latency
system.cpu.icache.replacements                      0                       # number of replacements
system.cpu.icache.ReadReq_hits::.cpu.inst           22                       # number of ReadReq hits
system.cpu.icache.ReadReq_hits::.switch_cpus.inst       670056                       # number of ReadReq hits
system.cpu.icache.ReadReq_hits::total          670078                       # number of ReadReq hits
system.cpu.icache.ReadReq_misses::.cpu.inst            3                       # number of ReadReq misses
system.cpu.icache.ReadReq_misses::.switch_cpus.inst           58                       # number of ReadReq misses
system.cpu.icache.ReadReq_misses::total            61                       # number of ReadReq misses
system.cpu.icache.ReadReq_miss_latency::.switch_cpus.inst      3768400                       # number of ReadReq miss cycles
system.cpu.icache.ReadReq_miss_latency::total      3768400                       # number of ReadReq miss cycles
system.cpu.icache.ReadReq_accesses::.cpu.inst           25                       # number of ReadReq accesses(hits+misses)
system.cpu.icache.ReadReq_accesses::.switch_cpus.inst       670114                       # number of ReadReq accesses(hits+misses)
system.cpu.icache.ReadReq_accesses::total       670139                       # number of ReadReq accesses(hits+misses)
system.cpu.icache.ReadReq_miss_rate::.cpu.inst     0.120000                       # miss rate for ReadReq accesses
system.cpu.icache.ReadReq_miss_rate::.switch_cpus.inst     0.000087                       # miss rate for ReadReq accesses
system.cpu.icache.ReadReq_miss_rate::total     0.000091                       # miss rate for ReadReq accesses
system.cpu.icache.ReadReq_avg_miss_latency::.switch_cpus.inst 64972.413793                       # average ReadReq miss latency
system.cpu.icache.ReadReq_avg_miss_latency::total 61777.049180                       # average ReadReq miss latency
system.cpu.icache.ReadReq_mshr_hits::.switch_cpus.inst           21                       # number of ReadReq MSHR hits
system.cpu.icache.ReadReq_mshr_hits::total           21                       # number of ReadReq MSHR hits
system.cpu.icache.ReadReq_mshr_misses::.switch_cpus.inst           37                       # number of ReadReq MSHR misses
system.cpu.icache.ReadReq_mshr_misses::total           37                       # number of ReadReq MSHR misses
system.cpu.icache.ReadReq_mshr_miss_latency::.switch_cpus.inst      2797600                       # number of ReadReq MSHR miss cycles
system.cpu.icache.ReadReq_mshr_miss_latency::total      2797600                       # number of ReadReq MSHR miss cycles
system.cpu.icache.ReadReq_mshr_miss_rate::.switch_cpus.inst     0.000055                       # mshr miss rate for ReadReq accesses
system.cpu.icache.ReadReq_mshr_miss_rate::total     0.000055                       # mshr miss rate for ReadReq accesses
system.cpu.icache.ReadReq_avg_mshr_miss_latency::.switch_cpus.inst 75610.810811                       # average ReadReq mshr miss latency
system.cpu.icache.ReadReq_avg_mshr_miss_latency::total 75610.810811                       # average ReadReq mshr miss latency
system.cpu.icache.power_state.pwrStateResidencyTicks::UNDEFINED 4663910641200                       # Cumulative time (in ticks) in various power states
system.cpu.icache.tags.tagsinuse            39.479521                       # Cycle average of tags in use
system.cpu.icache.tags.total_refs                   0                       # Total number of references to valid blocks.
system.cpu.icache.tags.sampled_refs                 0                       # Sample count of references to valid blocks.
system.cpu.icache.tags.avg_refs                   nan                       # Average number of references to valid blocks.
system.cpu.icache.tags.warmup_cycle      4663016145200                       # Cycle when the warmup percentage was hit.
system.cpu.icache.tags.occ_blocks::.cpu.inst     2.999987                       # Average occupied blocks per requestor
system.cpu.icache.tags.occ_blocks::.switch_cpus.inst    36.479534                       # Average occupied blocks per requestor
system.cpu.icache.tags.occ_percent::.cpu.inst     0.005859                       # Average percentage of cache occupancy
system.cpu.icache.tags.occ_percent::.switch_cpus.inst     0.071249                       # Average percentage of cache occupancy
system.cpu.icache.tags.occ_percent::total     0.077108                       # Average percentage of cache occupancy
system.cpu.icache.tags.occ_task_id_blocks::1024           40                       # Occupied blocks per task id
system.cpu.icache.tags.age_task_id_blocks_1024::2           40                       # Occupied blocks per task id
system.cpu.icache.tags.occ_task_id_percent::1024     0.078125                       # Percentage of cache occupancy per task id
system.cpu.icache.tags.tag_accesses           5361152                       # Number of tag accesses
system.cpu.icache.tags.data_accesses          5361152                       # Number of data accesses
system.cpu.icache.tags.power_state.pwrStateResidencyTicks::UNDEFINED 4663910641200                       # Cumulative time (in ticks) in various power states
system.cpu.itb.instHits                             0                       # ITB inst hits
system.cpu.itb.instMisses                           0                       # ITB inst misses
system.cpu.itb.readHits                             0                       # DTB read hits
system.cpu.itb.readMisses                           0                       # DTB read misses
system.cpu.itb.writeHits                            0                       # DTB write hits
system.cpu.itb.writeMisses                          0                       # DTB write misses
system.cpu.itb.inserts                              0                       # Number of times an entry is inserted into the TLB
system.cpu.itb.flushTlb                             2                       # Number of times complete TLB was flushed
system.cpu.itb.flushTlbMva                          0                       # Number of times TLB was flushed by MVA
system.cpu.itb.flushTlbMvaAsid                      0                       # Number of times TLB was flushed by MVA & ASID
system.cpu.itb.flushTlbAsid                         0                       # Number of times TLB was flushed by ASID
system.cpu.itb.flushedEntries                       0                       # Number of entries that have been flushed from TLB
system.cpu.itb.alignFaults                          0                       # Number of TLB faults due to alignment restrictions
system.cpu.itb.prefetchFaults                       0                       # Number of TLB faults due to prefetch
system.cpu.itb.domainFaults                         0                       # Number of TLB faults due to domain restrictions
system.cpu.itb.permsFaults                          0                       # Number of TLB faults due to permissions restrictions
system.cpu.itb.readAccesses                         0                       # DTB read accesses
system.cpu.itb.writeAccesses                        0                       # DTB write accesses
system.cpu.itb.instAccesses                         0                       # ITB inst accesses
system.cpu.itb.hits                                 0                       # Total TLB (inst and data) hits
system.cpu.itb.misses                               0                       # Total TLB (inst and data) misses
system.cpu.itb.accesses                             0                       # Total TLB (inst and data) accesses
system.cpu.itb.stage2_mmu.stage2_tlb.instHits            0                       # ITB inst hits
system.cpu.itb.stage2_mmu.stage2_tlb.instMisses            0                       # ITB inst misses
system.cpu.itb.stage2_mmu.stage2_tlb.readHits            0                       # DTB read hits
system.cpu.itb.stage2_mmu.stage2_tlb.readMisses            0                       # DTB read misses
system.cpu.itb.stage2_mmu.stage2_tlb.writeHits            0                       # DTB write hits
system.cpu.itb.stage2_mmu.stage2_tlb.writeMisses            0                       # DTB write misses
system.cpu.itb.stage2_mmu.stage2_tlb.inserts            0                       # Number of times an entry is inserted into the TLB
system.cpu.itb.stage2_mmu.stage2_tlb.flushTlb            0                       # Number of times complete TLB was flushed
system.cpu.itb.stage2_mmu.stage2_tlb.flushTlbMva            0                       # Number of times TLB was flushed by MVA
system.cpu.itb.stage2_mmu.stage2_tlb.flushTlbMvaAsid            0                       # Number of times TLB was flushed by MVA & ASID
system.cpu.itb.stage2_mmu.stage2_tlb.flushTlbAsid            0                       # Number of times TLB was flushed by ASID
system.cpu.itb.stage2_mmu.stage2_tlb.flushedEntries            0                       # Number of entries that have been flushed from TLB
system.cpu.itb.stage2_mmu.stage2_tlb.alignFaults            0                       # Number of TLB faults due to alignment restrictions
system.cpu.itb.stage2_mmu.stage2_tlb.prefetchFaults            0                       # Number of TLB faults due to prefetch
system.cpu.itb.stage2_mmu.stage2_tlb.domainFaults            0                       # Number of TLB faults due to domain restrictions
system.cpu.itb.stage2_mmu.stage2_tlb.permsFaults            0                       # Number of TLB faults due to permissions restrictions
system.cpu.itb.stage2_mmu.stage2_tlb.readAccesses            0                       # DTB read accesses
system.cpu.itb.stage2_mmu.stage2_tlb.writeAccesses            0                       # DTB write accesses
system.cpu.itb.stage2_mmu.stage2_tlb.instAccesses            0                       # ITB inst accesses
system.cpu.itb.stage2_mmu.stage2_tlb.hits            0                       # Total TLB (inst and data) hits
system.cpu.itb.stage2_mmu.stage2_tlb.misses            0                       # Total TLB (inst and data) misses
system.cpu.itb.stage2_mmu.stage2_tlb.accesses            0                       # Total TLB (inst and data) accesses
system.cpu.itb.stage2_mmu.stage2_tlb.walker.walks            0                       # Table walker walks requested
system.cpu.itb.stage2_mmu.stage2_tlb.walker.requestOrigin_Requested::Data            0                       # Table walker requests started/completed, data/inst
system.cpu.itb.stage2_mmu.stage2_tlb.walker.requestOrigin_Requested::Inst            0                       # Table walker requests started/completed, data/inst
system.cpu.itb.stage2_mmu.stage2_tlb.walker.requestOrigin_Requested::total            0                       # Table walker requests started/completed, data/inst
system.cpu.itb.stage2_mmu.stage2_tlb.walker.requestOrigin_Completed::Data            0                       # Table walker requests started/completed, data/inst
system.cpu.itb.stage2_mmu.stage2_tlb.walker.requestOrigin_Completed::Inst            0                       # Table walker requests started/completed, data/inst
system.cpu.itb.stage2_mmu.stage2_tlb.walker.requestOrigin_Completed::total            0                       # Table walker requests started/completed, data/inst
system.cpu.itb.stage2_mmu.stage2_tlb.walker.requestOrigin::total            0                       # Table walker requests started/completed, data/inst
system.cpu.itb.stage2_mmu.stage2_tlb.walker.power_state.pwrStateResidencyTicks::UNDEFINED 4663910641200                       # Cumulative time (in ticks) in various power states
system.cpu.itb.walker.walks                         0                       # Table walker walks requested
system.cpu.itb.walker.requestOrigin_Requested::Data            0                       # Table walker requests started/completed, data/inst
system.cpu.itb.walker.requestOrigin_Requested::Inst            0                       # Table walker requests started/completed, data/inst
system.cpu.itb.walker.requestOrigin_Requested::total            0                       # Table walker requests started/completed, data/inst
system.cpu.itb.walker.requestOrigin_Completed::Data            0                       # Table walker requests started/completed, data/inst
system.cpu.itb.walker.requestOrigin_Completed::Inst            0                       # Table walker requests started/completed, data/inst
system.cpu.itb.walker.requestOrigin_Completed::total            0                       # Table walker requests started/completed, data/inst
system.cpu.itb.walker.requestOrigin::total            0                       # Table walker requests started/completed, data/inst
system.cpu.itb.walker.power_state.pwrStateResidencyTicks::UNDEFINED 4663910641200                       # Cumulative time (in ticks) in various power states
[...]
system.switch_cpus.fetch.insts               35009699                       # Number of instructions fetch has processed
system.switch_cpus.fetch.branches             9464161                       # Number of branches that fetch encountered
system.switch_cpus.fetch.predictedBranches      5256842                       # Number of branches that fetch has predicted taken
system.switch_cpus.fetch.cycles              20662741                       # Number of cycles fetch has run and was not squashing or blocked
system.switch_cpus.fetch.squashCycles          575012                       # Number of cycles fetch has spent squashing
system.switch_cpus.fetch.cacheLines           6732420                       # Number of cache lines fetched
system.switch_cpus.fetch.icacheSquashes            15                       # Number of outstanding Icache misses that were squashed
system.switch_cpus.fetch.nisnDist::samples     21154006                       # Number of instructions fetched each cycle (Total)
system.switch_cpus.fetch.nisnDist::mean      1.701906                       # Number of instructions fetched each cycle (Total)
system.switch_cpus.fetch.nisnDist::stdev     2.472542                       # Number of instructions fetched each cycle (Total)
system.switch_cpus.fetch.nisnDist::underflows            0      0.00%      0.00% # Number of instructions fetched each cycle (Total)
system.switch_cpus.fetch.nisnDist::0         11717312     55.39%     55.39% # Number of instructions fetched each cycle (Total)
system.switch_cpus.fetch.nisnDist::1          1498383      7.08%     62.47% # Number of instructions fetched each cycle (Total)
system.switch_cpus.fetch.nisnDist::2          1883725      8.90%     71.38% # Number of instructions fetched each cycle (Total)
system.switch_cpus.fetch.nisnDist::3          1852806      8.76%     80.14% # Number of instructions fetched each cycle (Total)
system.switch_cpus.fetch.nisnDist::4          1790090      8.46%     88.60% # Number of instructions fetched each cycle (Total)
system.switch_cpus.fetch.nisnDist::5           128931      0.61%     89.21% # Number of instructions fetched each cycle (Total)
system.switch_cpus.fetch.nisnDist::6           132401      0.63%     89.83% # Number of instructions fetched each cycle (Total)
system.switch_cpus.fetch.nisnDist::7           624410      2.95%     92.79% # Number of instructions fetched each cycle (Total)
system.switch_cpus.fetch.nisnDist::8          1525948      7.21%    100.00% # Number of instructions fetched each cycle (Total)
system.switch_cpus.fetch.nisnDist::overflows            0      0.00%    100.00% # Number of instructions fetched each cycle (Total)
system.switch_cpus.fetch.nisnDist::min_value            0                       # Number of instructions fetched each cycle (Total)
system.switch_cpus.fetch.nisnDist::max_value            8                       # Number of instructions fetched each cycle (Total)
system.switch_cpus.fetch.nisnDist::total     21154006                       # Number of instructions fetched each cycle (Total)
system.switch_cpus.fetch.branchRate          0.447393                       # Number of branch fetches per cycle
system.switch_cpus.fetch.rate                1.654991                       # Number of inst fetches per cycle
system.switch_cpus.itb.instHits                     0                       # ITB inst hits
system.switch_cpus.itb.instMisses                   0                       # ITB inst misses
system.switch_cpus.itb.readHits                     0                       # DTB read hits
system.switch_cpus.itb.readMisses                   0                       # DTB read misses
system.switch_cpus.itb.writeHits                    0                       # DTB write hits
system.switch_cpus.itb.writeMisses                  0                       # DTB write misses
system.switch_cpus.itb.inserts                      0                       # Number of times an entry is inserted into the TLB
system.switch_cpus.itb.flushTlb                     0                       # Number of times complete TLB was flushed
system.switch_cpus.itb.flushTlbMva                  0                       # Number of times TLB was flushed by MVA
system.switch_cpus.itb.flushTlbMvaAsid              0                       # Number of times TLB was flushed by MVA & ASID
system.switch_cpus.itb.flushTlbAsid                 0                       # Number of times TLB was flushed by ASID
system.switch_cpus.itb.flushedEntries               0                       # Number of entries that have been flushed from TLB
system.switch_cpus.itb.alignFaults                  0                       # Number of TLB faults due to alignment restrictions
system.switch_cpus.itb.prefetchFaults               0                       # Number of TLB faults due to prefetch
system.switch_cpus.itb.domainFaults                 0                       # Number of TLB faults due to domain restrictions
system.switch_cpus.itb.permsFaults                  0                       # Number of TLB faults due to permissions restrictions
system.switch_cpus.itb.readAccesses                 0                       # DTB read accesses
system.switch_cpus.itb.writeAccesses                0                       # DTB write accesses
system.switch_cpus.itb.instAccesses                 0                       # ITB inst accesses
system.switch_cpus.itb.hits                         0                       # Total TLB (inst and data) hits
system.switch_cpus.itb.misses                       0                       # Total TLB (inst and data) misses
system.switch_cpus.itb.accesses                     0                       # Total TLB (inst and data) accesses
system.switch_cpus.itb.stage2_mmu.stage2_tlb.instHits            0                       # ITB inst hits
system.switch_cpus.itb.stage2_mmu.stage2_tlb.instMisses            0                       # ITB inst misses
system.switch_cpus.itb.stage2_mmu.stage2_tlb.readHits            0                       # DTB read hits
system.switch_cpus.itb.stage2_mmu.stage2_tlb.readMisses            0                       # DTB read misses
system.switch_cpus.itb.stage2_mmu.stage2_tlb.writeHits            0                       # DTB write hits
system.switch_cpus.itb.stage2_mmu.stage2_tlb.writeMisses            0                       # DTB write misses
system.switch_cpus.itb.stage2_mmu.stage2_tlb.inserts            0                       # Number of times an entry is inserted into the TLB
system.switch_cpus.itb.stage2_mmu.stage2_tlb.flushTlb            0                       # Number of times complete TLB was flushed
system.switch_cpus.itb.stage2_mmu.stage2_tlb.flushTlbMva            0                       # Number of times TLB was flushed by MVA
system.switch_cpus.itb.stage2_mmu.stage2_tlb.flushTlbMvaAsid            0                       # Number of times TLB was flushed by MVA & ASID
system.switch_cpus.itb.stage2_mmu.stage2_tlb.flushTlbAsid            0                       # Number of times TLB was flushed by ASID
system.switch_cpus.itb.stage2_mmu.stage2_tlb.flushedEntries            0                       # Number of entries that have been flushed from TLB
system.switch_cpus.itb.stage2_mmu.stage2_tlb.alignFaults            0                       # Number of TLB faults due to alignment restrictions
system.switch_cpus.itb.stage2_mmu.stage2_tlb.prefetchFaults            0                       # Number of TLB faults due to prefetch
system.switch_cpus.itb.stage2_mmu.stage2_tlb.domainFaults            0                       # Number of TLB faults due to domain restrictions
system.switch_cpus.itb.stage2_mmu.stage2_tlb.permsFaults            0                       # Number of TLB faults due to permissions restrictions
system.switch_cpus.itb.stage2_mmu.stage2_tlb.readAccesses            0                       # DTB read accesses
system.switch_cpus.itb.stage2_mmu.stage2_tlb.writeAccesses            0                       # DTB write accesses
system.switch_cpus.itb.stage2_mmu.stage2_tlb.instAccesses            0                       # ITB inst accesses
system.switch_cpus.itb.stage2_mmu.stage2_tlb.hits            0                       # Total TLB (inst and data) hits
system.switch_cpus.itb.stage2_mmu.stage2_tlb.misses            0                       # Total TLB (inst and data) misses
system.switch_cpus.itb.stage2_mmu.stage2_tlb.accesses            0                       # Total TLB (inst and data) accesses
system.switch_cpus.itb.stage2_mmu.stage2_tlb.walker.walks            0                       # Table walker walks requested
system.switch_cpus.itb.stage2_mmu.stage2_tlb.walker.requestOrigin_Requested::Data            0                       # Table walker requests started/completed, data/inst
system.switch_cpus.itb.stage2_mmu.stage2_tlb.walker.requestOrigin_Requested::Inst            0                       # Table walker requests started/completed, data/inst
system.switch_cpus.itb.stage2_mmu.stage2_tlb.walker.requestOrigin_Requested::total            0                       # Table walker requests started/completed, data/inst
system.switch_cpus.itb.stage2_mmu.stage2_tlb.walker.requestOrigin_Completed::Data            0                       # Table walker requests started/completed, data/inst
system.switch_cpus.itb.stage2_mmu.stage2_tlb.walker.requestOrigin_Completed::Inst            0                       # Table walker requests started/completed, data/inst
system.switch_cpus.itb.stage2_mmu.stage2_tlb.walker.requestOrigin_Completed::total            0                       # Table walker requests started/completed, data/inst
system.switch_cpus.itb.stage2_mmu.stage2_tlb.walker.requestOrigin::total            0                       # Table walker requests started/completed, data/inst
system.switch_cpus.itb.stage2_mmu.stage2_tlb.walker.power_state.pwrStateResidencyTicks::UNDEFINED   8461602400                       # Cumulative time (in ticks) in various power states
system.switch_cpus.itb.walker.walks                 0                       # Table walker walks requested
system.switch_cpus.itb.walker.requestOrigin_Requested::Data            0                       # Table walker requests started/completed, data/inst
system.switch_cpus.itb.walker.requestOrigin_Requested::Inst            0                       # Table walker requests started/completed, data/inst
system.switch_cpus.itb.walker.requestOrigin_Requested::total            0                       # Table walker requests started/completed, data/inst
system.switch_cpus.itb.walker.requestOrigin_Completed::Data            0                       # Table walker requests started/completed, data/inst
system.switch_cpus.itb.walker.requestOrigin_Completed::Inst            0                       # Table walker requests started/completed, data/inst
system.switch_cpus.itb.walker.requestOrigin_Completed::total            0                       # Table walker requests started/completed, data/inst
system.switch_cpus.itb.walker.requestOrigin::total            0                       # Table walker requests started/completed, data/inst
system.switch_cpus.itb.walker.power_state.pwrStateResidencyTicks::UNDEFINED   8461602400                       # Cumulative time (in ticks) in various power states
system.switch_cpus.lsq0.forwLoads              230615                       # Number of loads that had data forwarded from stores
system.switch_cpus.lsq0.squashedLoads         4606385                       # Number of loads squashed
system.switch_cpus.lsq0.ignoredResponses           66                       # Number of memory responses ignored because the instruction is squashed
system.switch_cpus.lsq0.memOrderViolation          389                       # Number of memory ordering violations
system.switch_cpus.lsq0.squashedStores         860531                       # Number of stores squashed
system.switch_cpus.lsq0.rescheduledLoads          932                       # Number of loads that were rescheduled
system.switch_cpus.lsq0.blockedByCache         191029                       # Number of times an access to memory failed due to the cache being blocked
system.switch_cpus.power_state.pwrStateResidencyTicks::OFF   8461602400                       # Cumulative time (in ticks) in various power states
system.switch_cpus.rename.squashCycles         287500                       # Number of cycles rename is squashing
system.switch_cpus.rename.idleCycles          1895520                       # Number of cycles rename is idle
system.switch_cpus.rename.blockCycles        11498375                       # Number of cycles rename is blocking
system.switch_cpus.rename.serializeStallCycles            0                       # count of cycles rename stalledfor serializing inst
system.switch_cpus.rename.runCycles           5456169                       # Number of cycles rename is running
system.switch_cpus.rename.unblockCycles       2016442                       # Number of cycles rename is unblocking
system.switch_cpus.rename.renamedInsts       27746466                       # Number of instructions processed by rename
system.switch_cpus.rename.squashedInsts        859693                       # Number of squashed instructions processed by rename
system.switch_cpus.rename.ROBFullEvents        122373                       # Number of times rename has blocked due to ROB full
system.switch_cpus.rename.IQFullEvents         709112                       # Number of times rename has blocked due to IQ full
system.switch_cpus.rename.LQFullEvents           1842                       # Number of times rename has blocked due to LQ full
system.switch_cpus.rename.SQFullEvents             79                       # Number of times rename has blocked due to SQ full
system.switch_cpus.rename.fullRegistersEvents      1480447                       # Number of times there has been no free registers
system.switch_cpus.rename.renamedOperands     33601286                       # Number of destination operands rename has renamed
system.switch_cpus.rename.lookups            47251967                       # Number of register rename lookups that rename has made
system.switch_cpus.rename.intLookups         29829272                       # Number of integer rename lookups
system.switch_cpus.rename.vecLookups              169                       # Number of vector rename lookups
system.switch_cpus.rename.vecPredLookups           13                       # Number of vector predicate rename lookups
system.switch_cpus.rename.committedMaps      12421410                       # Number of HB maps that are committed
system.switch_cpus.rename.undoneMaps         21179874                       # Number of HB maps that are undone due to squashing
system.switch_cpus.rename.serializing               0                       # count of serializing insts renamed
system.switch_cpus.rename.tempSerializing            0                       # count of temporary serializing insts renamed
system.switch_cpus.rename.skidInsts           2507032                       # count of insts added to the skid buffer
system.switch_cpus.rob.reads                 41269611                       # The number of ROB reads
system.switch_cpus.rob.writes                56979181                       # The number of ROB writes
system.switch_cpus.thread_0.numInsts         10000001                       # Number of Instructions committed
system.switch_cpus.thread_0.numOps           10269604                       # Number of Ops committed
system.switch_cpus.thread_0.numMemRefs              0                       # Number of Memory References
system.tol2bus.trans_dist::ReadResp            476999                       # Transaction distribution
system.tol2bus.trans_dist::WritebackDirty        96509                       # Transaction distribution
system.tol2bus.trans_dist::WritebackClean       422635                       # Transaction distribution
system.tol2bus.trans_dist::CleanEvict          218689                       # Transaction distribution
system.tol2bus.trans_dist::HardPFReq            43491                       # Transaction distribution
system.tol2bus.trans_dist::ReadExReq            33031                       # Transaction distribution
system.tol2bus.trans_dist::ReadExResp           33031                       # Transaction distribution
system.tol2bus.trans_dist::ReadCleanReq             8                       # Transaction distribution
system.tol2bus.trans_dist::ReadSharedReq       476993                       # Transaction distribution
system.tol2bus.pkt_count_system.cpu.icache.mem_side_port::system.l2.cpu_side_port           16                       # Packet count per connected requestor and responder (bytes)
system.tol2bus.pkt_count_system.cpu.dcache.mem_side_port::system.l2.cpu_side_port      1530068                       # Packet count per connected requestor and responder (bytes)
system.tol2bus.pkt_count::total               1530084                       # Packet count per connected requestor and responder (bytes)
system.tol2bus.pkt_size_system.cpu.icache.mem_side_port::system.l2.cpu_side_port         1024                       # Cumulative packet size per connected requestor and responder (bytes)
system.tol2bus.pkt_size_system.cpu.dcache.mem_side_port::system.l2.cpu_side_port    130565632                       # Cumulative packet size per connected requestor and responder (bytes)
system.tol2bus.pkt_size::total              130566656                       # Cumulative packet size per connected requestor and responder (bytes)
system.tol2bus.snoops                          271302                       # Total snoops (count)
system.tol2bus.snoopTraffic                   1167616                       # Total snoop traffic (bytes)
system.tol2bus.snoop_fanout::samples           781334                       # Request fanout histogram
system.tol2bus.snoop_fanout::mean            0.001730                       # Request fanout histogram
system.tol2bus.snoop_fanout::stdev           0.041562                       # Request fanout histogram
system.tol2bus.snoop_fanout::underflows             0      0.00%      0.00% # Request fanout histogram
system.tol2bus.snoop_fanout::0                 779982     99.83%     99.83% # Request fanout histogram
system.tol2bus.snoop_fanout::1                   1352      0.17%    100.00% # Request fanout histogram
system.tol2bus.snoop_fanout::2                      0      0.00%    100.00% # Request fanout histogram
system.tol2bus.snoop_fanout::3                      0      0.00%    100.00% # Request fanout histogram
system.tol2bus.snoop_fanout::4                      0      0.00%    100.00% # Request fanout histogram
system.tol2bus.snoop_fanout::overflows              0      0.00%    100.00% # Request fanout histogram
system.tol2bus.snoop_fanout::min_value              0                       # Request fanout histogram
system.tol2bus.snoop_fanout::max_value              1                       # Request fanout histogram
system.tol2bus.snoop_fanout::total             781334                       # Request fanout histogram
system.tol2bus.power_state.pwrStateResidencyTicks::UNDEFINED   8461602400                       # Cumulative time (in ticks) in various power states
system.tol2bus.reqLayer0.occupancy         1224058398                       # Layer occupancy (ticks)
system.tol2bus.reqLayer0.utilization             14.5                       # Layer utilization (%)
system.tol2bus.respLayer0.occupancy             16000                       # Layer occupancy (ticks)
system.tol2bus.respLayer0.utilization             0.0                       # Layer utilization (%)
system.tol2bus.respLayer1.occupancy        1020044000                       # Layer occupancy (ticks)
system.tol2bus.respLayer1.utilization            12.1                       # Layer utilization (%)
system.voltage_domain.voltage                       1                       # Voltage in Volts

---------- End Simulation Statistics   ----------
