
---------- Begin Simulation Statistics ----------
final_tick                               334098487600                       # Number of ticks from beginning of simulation (restored from checkpoints and never reset)
host_inst_rate                                 352010                       # Simulator instruction rate (inst/s)
host_mem_usage                               16975244                       # Number of bytes of host memory used
host_op_rate                                   352003                       # Simulator op (including micro ops) rate (op/s)
host_seconds                                     2.84                       # Real time elapsed on the host
host_tick_rate                              111381488                       # Simulator tick rate (ticks/s)
sim_freq                                 1000000000000                       # Frequency of simulated ticks
sim_insts                                     1000028                       # Number of instructions simulated
sim_ops                                       1000028                       # Number of ops (including micro ops) simulated
sim_seconds                                  0.000316                       # Number of seconds simulated
sim_ticks                                   316432000                       # Number of ticks simulated
system.cpu.Branches                                 2                       # Number of branches fetched
system.cpu.committedInsts                          25                       # Number of instructions committed
system.cpu.committedOps                            25                       # Number of ops (including micro ops) committed
system.cpu.idle_fraction                            0                       # Percentage of idle cycles
system.cpu.not_idle_fraction                        1                       # Percentage of non-idle cycles
system.cpu.numCycles                               25                       # number of cpu cycles simulated
system.cpu.numWorkItemsCompleted                    0                       # number of work items this cpu completed
system.cpu.numWorkItemsStarted                      0                       # number of work items this cpu started
system.cpu.num_busy_cycles                         25                       # Number of busy cycles
system.cpu.num_cc_register_reads                    6                       # number of times the CC registers were read
system.cpu.num_cc_register_writes                   6                       # number of times the CC registers were written
system.cpu.num_conditional_control_insts            2                       # number of instructions that are conditional controls
system.cpu.num_fp_alu_accesses                      0                       # Number of float alu accesses
system.cpu.num_fp_insts                             0                       # number of float instructions
system.cpu.num_fp_register_reads                    0                       # number of times the floating registers were read
system.cpu.num_fp_register_writes                   0                       # number of times the floating registers were written
system.cpu.num_func_calls                           0                       # number of times a function call or return occured
system.cpu.num_idle_cycles                          0                       # Number of idle cycles
system.cpu.num_int_alu_accesses                    23                       # Number of integer alu accesses
system.cpu.num_int_insts                           23                       # number of integer instructions
system.cpu.num_int_register_reads                  28                       # number of times the integer registers were read
system.cpu.num_int_register_writes                 21                       # number of times the integer registers were written
system.cpu.num_load_insts                          11                       # Number of load instructions
system.cpu.num_mem_refs                            13                       # number of memory refs
system.cpu.num_store_insts                          2                       # Number of store instructions
system.cpu.num_vec_alu_accesses                     0                       # Number of vector alu accesses
system.cpu.num_vec_insts                            0                       # number of vector instructions
system.cpu.num_vec_register_reads                   0                       # number of times the vector registers were read
system.cpu.num_vec_register_writes                  0                       # number of times the vector registers were written
system.cpu.op_class::No_OpClass                     0      0.00%      0.00% # Class of executed instruction
system.cpu.op_class::IntAlu                        12     48.00%     48.00% # Class of executed instruction
system.cpu.op_class::IntMult                        0      0.00%     48.00% # Class of executed instruction
system.cpu.op_class::IntDiv                         0      0.00%     48.00% # Class of executed instruction
system.cpu.op_class::FloatAdd                       0      0.00%     48.00% # Class of executed instruction
system.cpu.op_class::FloatCmp                       0      0.00%     48.00% # Class of executed instruction
system.cpu.op_class::FloatCvt                       0      0.00%     48.00% # Class of executed instruction
system.cpu.op_class::FloatMult                      0      0.00%     48.00% # Class of executed instruction
system.cpu.op_class::FloatMultAcc                   0      0.00%     48.00% # Class of executed instruction
system.cpu.op_class::FloatDiv                       0      0.00%     48.00% # Class of executed instruction
system.cpu.op_class::FloatMisc                      0      0.00%     48.00% # Class of executed instruction
system.cpu.op_class::FloatSqrt                      0      0.00%     48.00% # Class of executed instruction
system.cpu.op_class::SimdAdd                        0      0.00%     48.00% # Class of executed instruction
system.cpu.op_class::SimdAddAcc                     0      0.00%     48.00% # Class of executed instruction
system.cpu.op_class::SimdAlu                        0      0.00%     48.00% # Class of executed instruction
system.cpu.op_class::SimdCmp                        0      0.00%     48.00% # Class of executed instruction
system.cpu.op_class::SimdCvt                        0      0.00%     48.00% # Class of executed instruction
system.cpu.op_class::SimdMisc                       0      0.00%     48.00% # Class of executed instruction
system.cpu.op_class::SimdMult                       0      0.00%     48.00% # Class of executed instruction
system.cpu.op_class::SimdMultAcc                    0      0.00%     48.00% # Class of executed instruction
system.cpu.op_class::SimdShift                      0      0.00%     48.00% # Class of executed instruction
system.cpu.op_class::SimdShiftAcc                   0      0.00%     48.00% # Class of executed instruction
system.cpu.op_class::SimdDiv                        0      0.00%     48.00% # Class of executed instruction
system.cpu.op_class::SimdSqrt                       0      0.00%     48.00% # Class of executed instruction
system.cpu.op_class::SimdFloatAdd                   0      0.00%     48.00% # Class of executed instruction
system.cpu.op_class::SimdFloatAlu                   0      0.00%     48.00% # Class of executed instruction
system.cpu.op_class::SimdFloatCmp                   0      0.00%     48.00% # Class of executed instruction
system.cpu.op_class::SimdFloatCvt                   0      0.00%     48.00% # Class of executed instruction
system.cpu.op_class::SimdFloatDiv                   0      0.00%     48.00% # Class of executed instruction
system.cpu.op_class::SimdFloatMisc                  0      0.00%     48.00% # Class of executed instruction
system.cpu.op_class::SimdFloatMult                  0      0.00%     48.00% # Class of executed instruction
system.cpu.op_class::SimdFloatMultAcc               0      0.00%     48.00% # Class of executed instruction
system.cpu.op_class::SimdFloatSqrt                  0      0.00%     48.00% # Class of executed instruction
system.cpu.op_class::SimdReduceAdd                  0      0.00%     48.00% # Class of executed instruction
system.cpu.op_class::SimdReduceAlu                  0      0.00%     48.00% # Class of executed instruction
system.cpu.op_class::SimdReduceCmp                  0      0.00%     48.00% # Class of executed instruction
system.cpu.op_class::SimdFloatReduceAdd             0      0.00%     48.00% # Class of executed instruction
system.cpu.op_class::SimdFloatReduceCmp             0      0.00%     48.00% # Class of executed instruction
system.cpu.op_class::SimdAes                        0      0.00%     48.00% # Class of executed instruction
system.cpu.op_class::SimdAesMix                     0      0.00%     48.00% # Class of executed instruction
system.cpu.op_class::SimdSha1Hash                   0      0.00%     48.00% # Class of executed instruction
system.cpu.op_class::SimdSha1Hash2                  0      0.00%     48.00% # Class of executed instruction
system.cpu.op_class::SimdSha256Hash                 0      0.00%     48.00% # Class of executed instruction
system.cpu.op_class::SimdSha256Hash2                0      0.00%     48.00% # Class of executed instruction
system.cpu.op_class::SimdShaSigma2                  0      0.00%     48.00% # Class of executed instruction
system.cpu.op_class::SimdShaSigma3                  0      0.00%     48.00% # Class of executed instruction
system.cpu.op_class::SimdPredAlu                    0      0.00%     48.00% # Class of executed instruction
system.cpu.op_class::MemRead                       11     44.00%     92.00% # Class of executed instruction
system.cpu.op_class::MemWrite                       2      8.00%    100.00% # Class of executed instruction
system.cpu.op_class::FloatMemRead                   0      0.00%    100.00% # Class of executed instruction
system.cpu.op_class::FloatMemWrite                  0      0.00%    100.00% # Class of executed instruction
system.cpu.op_class::IprAccess                      0      0.00%    100.00% # Class of executed instruction
system.cpu.op_class::InstPrefetch                   0      0.00%    100.00% # Class of executed instruction
system.cpu.op_class::total                         25                       # Class of executed instruction
system.cpu.workload.numSyscalls                     0                       # Number of system calls
system.membus.snoop_filter.hit_multi_requests            0                       # Number of requests hitting in the snoop filter with multiple (>1) holders of the requested data.
system.membus.snoop_filter.hit_multi_snoops            0                       # Number of snoops hitting in the snoop filter with multiple (>1) holders of the requested data.
system.membus.snoop_filter.hit_single_requests            0                       # Number of requests hitting in the snoop filter with a single holder of the requested data.
system.membus.snoop_filter.hit_single_snoops            0                       # Number of snoops hitting in the snoop filter with a single holder of the requested data.
system.membus.snoop_filter.tot_requests          5044                       # Total number of requests made to the snoop filter.
system.membus.snoop_filter.tot_snoops               0                       # Total number of snoops made to the snoop filter.
system.switch_cpus.cc_regfile_reads            277866                       # number of cc regfile reads
system.switch_cpus.cc_regfile_writes           278520                       # number of cc regfile writes
system.switch_cpus.committedInsts             1000003                       # Number of Instructions Simulated
system.switch_cpus.committedOps               1000003                       # Number of Ops (including micro ops) Simulated
system.switch_cpus.cpi                       0.791053                       # CPI: Cycles Per Instruction
system.switch_cpus.cpi_total                 0.791053                       # CPI: Total CPI of All Threads
system.switch_cpus.idleCycles                     377                       # Total number of cycles that the CPU has spent unscheduled due to idling
system.switch_cpus.iew.branchMispredicts         1925                       # Number of branch mispredicts detected at execute
system.switch_cpus.iew.exec_branches            93754                       # Number of branches executed
system.switch_cpus.iew.exec_nop                     0                       # number of nop insts executed
system.switch_cpus.iew.exec_rate             1.352869                       # Inst execution rate
system.switch_cpus.iew.exec_refs               538382                       # number of memory reference insts executed
system.switch_cpus.iew.exec_stores              99434                       # Number of stores executed
system.switch_cpus.iew.exec_swp                     0                       # number of swp insts executed
system.switch_cpus.iew.iewBlockCycles           30100                       # Number of cycles IEW is blocking
system.switch_cpus.iew.iewDispLoadInsts        459123                       # Number of dispatched load instructions
system.switch_cpus.iew.iewDispNonSpecInsts            0                       # Number of dispatched non-speculative instructions
system.switch_cpus.iew.iewDispSquashedInsts            0                       # Number of squashed instructions skipped by dispatch
system.switch_cpus.iew.iewDispStoreInsts       105537                       # Number of dispatched store instructions
system.switch_cpus.iew.iewDispatchedInsts      1123852                       # Number of instructions dispatched to IQ
system.switch_cpus.iew.iewExecLoadInsts        438948                       # Number of load instructions executed
system.switch_cpus.iew.iewExecSquashedInsts         3544                       # Number of squashed instructions skipped in execute
system.switch_cpus.iew.iewExecutedInsts       1070194                       # Number of executed instructions
system.switch_cpus.iew.iewIQFullEvents              0                       # Number of times the IQ has become full, causing a stall
system.switch_cpus.iew.iewIdleCycles                0                       # Number of cycles IEW is idle
system.switch_cpus.iew.iewLSQFullEvents             0                       # Number of times the LSQ has become full, causing a stall
system.switch_cpus.iew.iewSquashCycles           1785                       # Number of cycles IEW is squashing
system.switch_cpus.iew.iewUnblockCycles             0                       # Number of cycles IEW is unblocking
system.switch_cpus.iew.memOrderViolationEvents           23                       # Number of memory order violations
system.switch_cpus.iew.predictedNotTakenIncorrect          605                       # Number of branches that were predicted not taken incorrectly
system.switch_cpus.iew.predictedTakenIncorrect         1320                       # Number of branches that were predicted taken incorrectly
system.switch_cpus.iew.wb_consumers           1044007                       # num instructions consuming a value
system.switch_cpus.iew.wb_count               1067401                       # cumulative count of insts written-back
system.switch_cpus.iew.wb_fanout             0.820017                       # average fanout of values written-back
system.switch_cpus.iew.wb_producers            856103                       # num instructions producing a value
system.switch_cpus.iew.wb_rate               1.349339                       # insts written-back per cycle
system.switch_cpus.iew.wb_sent                1068539                       # cumulative count of insts sent to commit
system.switch_cpus.int_regfile_reads          1169871                       # number of integer regfile reads
system.switch_cpus.int_regfile_writes          875916                       # number of integer regfile writes
system.switch_cpus.ipc                       1.264138                       # IPC: Instructions Per Cycle
system.switch_cpus.ipc_total                 1.264138                       # IPC: Total IPC of All Threads
system.switch_cpus.iq.FU_type_0::No_OpClass            0      0.00%      0.00% # Type of FU issued
system.switch_cpus.iq.FU_type_0::IntAlu        532046     49.55%     49.55% # Type of FU issued
system.switch_cpus.iq.FU_type_0::IntMult            0      0.00%     49.55% # Type of FU issued
system.switch_cpus.iq.FU_type_0::IntDiv             0      0.00%     49.55% # Type of FU issued
system.switch_cpus.iq.FU_type_0::FloatAdd            0      0.00%     49.55% # Type of FU issued
system.switch_cpus.iq.FU_type_0::FloatCmp            0      0.00%     49.55% # Type of FU issued
system.switch_cpus.iq.FU_type_0::FloatCvt            0      0.00%     49.55% # Type of FU issued
system.switch_cpus.iq.FU_type_0::FloatMult            0      0.00%     49.55% # Type of FU issued
system.switch_cpus.iq.FU_type_0::FloatMultAcc            0      0.00%     49.55% # Type of FU issued
system.switch_cpus.iq.FU_type_0::FloatDiv            0      0.00%     49.55% # Type of FU issued
system.switch_cpus.iq.FU_type_0::FloatMisc            0      0.00%     49.55% # Type of FU issued
system.switch_cpus.iq.FU_type_0::FloatSqrt            0      0.00%     49.55% # Type of FU issued
system.switch_cpus.iq.FU_type_0::SimdAdd            0      0.00%     49.55% # Type of FU issued
system.switch_cpus.iq.FU_type_0::SimdAddAcc            0      0.00%     49.55% # Type of FU issued
system.switch_cpus.iq.FU_type_0::SimdAlu            0      0.00%     49.55% # Type of FU issued
system.switch_cpus.iq.FU_type_0::SimdCmp            0      0.00%     49.55% # Type of FU issued
system.switch_cpus.iq.FU_type_0::SimdCvt            0      0.00%     49.55% # Type of FU issued
system.switch_cpus.iq.FU_type_0::SimdMisc            0      0.00%     49.55% # Type of FU issued
system.switch_cpus.iq.FU_type_0::SimdMult            0      0.00%     49.55% # Type of FU issued
system.switch_cpus.iq.FU_type_0::SimdMultAcc            0      0.00%     49.55% # Type of FU issued
system.switch_cpus.iq.FU_type_0::SimdShift            0      0.00%     49.55% # Type of FU issued
system.switch_cpus.iq.FU_type_0::SimdShiftAcc            0      0.00%     49.55% # Type of FU issued
system.switch_cpus.iq.FU_type_0::SimdDiv            0      0.00%     49.55% # Type of FU issued
system.switch_cpus.iq.FU_type_0::SimdSqrt            0      0.00%     49.55% # Type of FU issued
system.switch_cpus.iq.FU_type_0::SimdFloatAdd            0      0.00%     49.55% # Type of FU issued
system.switch_cpus.iq.FU_type_0::SimdFloatAlu            0      0.00%     49.55% # Type of FU issued
system.switch_cpus.iq.FU_type_0::SimdFloatCmp            0      0.00%     49.55% # Type of FU issued
system.switch_cpus.iq.FU_type_0::SimdFloatCvt            0      0.00%     49.55% # Type of FU issued
system.switch_cpus.iq.FU_type_0::SimdFloatDiv            0      0.00%     49.55% # Type of FU issued
system.switch_cpus.iq.FU_type_0::SimdFloatMisc            0      0.00%     49.55% # Type of FU issued
system.switch_cpus.iq.FU_type_0::SimdFloatMult            0      0.00%     49.55% # Type of FU issued
system.switch_cpus.iq.FU_type_0::SimdFloatMultAcc            0      0.00%     49.55% # Type of FU issued
system.switch_cpus.iq.FU_type_0::SimdFloatSqrt            0      0.00%     49.55% # Type of FU issued
system.switch_cpus.iq.FU_type_0::SimdReduceAdd            0      0.00%     49.55% # Type of FU issued
system.switch_cpus.iq.FU_type_0::SimdReduceAlu            0      0.00%     49.55% # Type of FU issued
system.switch_cpus.iq.FU_type_0::SimdReduceCmp            0      0.00%     49.55% # Type of FU issued
system.switch_cpus.iq.FU_type_0::SimdFloatReduceAdd            0      0.00%     49.55% # Type of FU issued
system.switch_cpus.iq.FU_type_0::SimdFloatReduceCmp            0      0.00%     49.55% # Type of FU issued
system.switch_cpus.iq.FU_type_0::SimdAes            0      0.00%     49.55% # Type of FU issued
system.switch_cpus.iq.FU_type_0::SimdAesMix            0      0.00%     49.55% # Type of FU issued
system.switch_cpus.iq.FU_type_0::SimdSha1Hash            0      0.00%     49.55% # Type of FU issued
system.switch_cpus.iq.FU_type_0::SimdSha1Hash2            0      0.00%     49.55% # Type of FU issued
system.switch_cpus.iq.FU_type_0::SimdSha256Hash            0      0.00%     49.55% # Type of FU issued
system.switch_cpus.iq.FU_type_0::SimdSha256Hash2            0      0.00%     49.55% # Type of FU issued
system.switch_cpus.iq.FU_type_0::SimdShaSigma2            0      0.00%     49.55% # Type of FU issued
system.switch_cpus.iq.FU_type_0::SimdShaSigma3            0      0.00%     49.55% # Type of FU issued
system.switch_cpus.iq.FU_type_0::SimdPredAlu            0      0.00%     49.55% # Type of FU issued
system.switch_cpus.iq.FU_type_0::MemRead       441534     41.12%     90.67% # Type of FU issued
system.switch_cpus.iq.FU_type_0::MemWrite       100163      9.33%    100.00% # Type of FU issued
system.switch_cpus.iq.FU_type_0::FloatMemRead            0      0.00%    100.00% # Type of FU issued
system.switch_cpus.iq.FU_type_0::FloatMemWrite            0      0.00%    100.00% # Type of FU issued
system.switch_cpus.iq.FU_type_0::IprAccess            0      0.00%    100.00% # Type of FU issued
system.switch_cpus.iq.FU_type_0::InstPrefetch            0      0.00%    100.00% # Type of FU issued
system.switch_cpus.iq.FU_type_0::total        1073743                       # Type of FU issued
system.switch_cpus.iq.fp_alu_accesses               0                       # Number of floating point alu accesses
system.switch_cpus.iq.fp_inst_queue_reads            0                       # Number of floating instruction queue reads
system.switch_cpus.iq.fp_inst_queue_wakeup_accesses            0                       # Number of floating instruction queue wakeup accesses
system.switch_cpus.iq.fp_inst_queue_writes            0                       # Number of floating instruction queue writes
system.switch_cpus.iq.fu_busy_cnt              422213                       # FU busy when requested
system.switch_cpus.iq.fu_busy_rate           0.393216                       # FU busy rate (busy events/executed inst)
system.switch_cpus.iq.fu_full::No_OpClass            0      0.00%      0.00% # attempts to use FU when none available
system.switch_cpus.iq.fu_full::IntAlu           54935     13.01%     13.01% # attempts to use FU when none available
system.switch_cpus.iq.fu_full::IntMult              0      0.00%     13.01% # attempts to use FU when none available
system.switch_cpus.iq.fu_full::IntDiv               0      0.00%     13.01% # attempts to use FU when none available
system.switch_cpus.iq.fu_full::FloatAdd             0      0.00%     13.01% # attempts to use FU when none available
system.switch_cpus.iq.fu_full::FloatCmp             0      0.00%     13.01% # attempts to use FU when none available
system.switch_cpus.iq.fu_full::FloatCvt             0      0.00%     13.01% # attempts to use FU when none available
system.switch_cpus.iq.fu_full::FloatMult            0      0.00%     13.01% # attempts to use FU when none available
system.switch_cpus.iq.fu_full::FloatMultAcc            0      0.00%     13.01% # attempts to use FU when none available
system.switch_cpus.iq.fu_full::FloatDiv             0      0.00%     13.01% # attempts to use FU when none available
system.switch_cpus.iq.fu_full::FloatMisc            0      0.00%     13.01% # attempts to use FU when none available
system.switch_cpus.iq.fu_full::FloatSqrt            0      0.00%     13.01% # attempts to use FU when none available
system.switch_cpus.iq.fu_full::SimdAdd              0      0.00%     13.01% # attempts to use FU when none available
system.switch_cpus.iq.fu_full::SimdAddAcc            0      0.00%     13.01% # attempts to use FU when none available
system.switch_cpus.iq.fu_full::SimdAlu              0      0.00%     13.01% # attempts to use FU when none available
system.switch_cpus.iq.fu_full::SimdCmp              0      0.00%     13.01% # attempts to use FU when none available
system.switch_cpus.iq.fu_full::SimdCvt              0      0.00%     13.01% # attempts to use FU when none available
system.switch_cpus.iq.fu_full::SimdMisc             0      0.00%     13.01% # attempts to use FU when none available
system.switch_cpus.iq.fu_full::SimdMult             0      0.00%     13.01% # attempts to use FU when none available
system.switch_cpus.iq.fu_full::SimdMultAcc            0      0.00%     13.01% # attempts to use FU when none available
system.switch_cpus.iq.fu_full::SimdShift            0      0.00%     13.01% # attempts to use FU when none available
system.switch_cpus.iq.fu_full::SimdShiftAcc            0      0.00%     13.01% # attempts to use FU when none available
system.switch_cpus.iq.fu_full::SimdDiv              0      0.00%     13.01% # attempts to use FU when none available
system.switch_cpus.iq.fu_full::SimdSqrt             0      0.00%     13.01% # attempts to use FU when none available
system.switch_cpus.iq.fu_full::SimdFloatAdd            0      0.00%     13.01% # attempts to use FU when none available
system.switch_cpus.iq.fu_full::SimdFloatAlu            0      0.00%     13.01% # attempts to use FU when none available
system.switch_cpus.iq.fu_full::SimdFloatCmp            0      0.00%     13.01% # attempts to use FU when none available
system.switch_cpus.iq.fu_full::SimdFloatCvt            0      0.00%     13.01% # attempts to use FU when none available
system.switch_cpus.iq.fu_full::SimdFloatDiv            0      0.00%     13.01% # attempts to use FU when none available
system.switch_cpus.iq.fu_full::SimdFloatMisc            0      0.00%     13.01% # attempts to use FU when none available
system.switch_cpus.iq.fu_full::SimdFloatMult            0      0.00%     13.01% # attempts to use FU when none available
system.switch_cpus.iq.fu_full::SimdFloatMultAcc            0      0.00%     13.01% # attempts to use FU when none available
system.switch_cpus.iq.fu_full::SimdFloatSqrt            0      0.00%     13.01% # attempts to use FU when none available
system.switch_cpus.iq.fu_full::SimdReduceAdd            0      0.00%     13.01% # attempts to use FU when none available
system.switch_cpus.iq.fu_full::SimdReduceAlu            0      0.00%     13.01% # attempts to use FU when none available
system.switch_cpus.iq.fu_full::SimdReduceCmp            0      0.00%     13.01% # attempts to use FU when none available
system.switch_cpus.iq.fu_full::SimdFloatReduceAdd            0      0.00%     13.01% # attempts to use FU when none available
system.switch_cpus.iq.fu_full::SimdFloatReduceCmp            0      0.00%     13.01% # attempts to use FU when none available
system.switch_cpus.iq.fu_full::SimdAes              0      0.00%     13.01% # attempts to use FU when none available
system.switch_cpus.iq.fu_full::SimdAesMix            0      0.00%     13.01% # attempts to use FU when none available
system.switch_cpus.iq.fu_full::SimdSha1Hash            0      0.00%     13.01% # attempts to use FU when none available
system.switch_cpus.iq.fu_full::SimdSha1Hash2            0      0.00%     13.01% # attempts to use FU when none available
system.switch_cpus.iq.fu_full::SimdSha256Hash            0      0.00%     13.01% # attempts to use FU when none available
system.switch_cpus.iq.fu_full::SimdSha256Hash2            0      0.00%     13.01% # attempts to use FU when none available
system.switch_cpus.iq.fu_full::SimdShaSigma2            0      0.00%     13.01% # attempts to use FU when none available
system.switch_cpus.iq.fu_full::SimdShaSigma3            0      0.00%     13.01% # attempts to use FU when none available
system.switch_cpus.iq.fu_full::SimdPredAlu            0      0.00%     13.01% # attempts to use FU when none available
system.switch_cpus.iq.fu_full::MemRead         365357     86.53%     99.55% # attempts to use FU when none available
system.switch_cpus.iq.fu_full::MemWrite          1921      0.45%    100.00% # attempts to use FU when none available
system.switch_cpus.iq.fu_full::FloatMemRead            0      0.00%    100.00% # attempts to use FU when none available
system.switch_cpus.iq.fu_full::FloatMemWrite            0      0.00%    100.00% # attempts to use FU when none available
system.switch_cpus.iq.fu_full::IprAccess            0      0.00%    100.00% # attempts to use FU when none available
system.switch_cpus.iq.fu_full::InstPrefetch            0      0.00%    100.00% # attempts to use FU when none available
system.switch_cpus.iq.int_alu_accesses        1495956                       # Number of integer alu accesses
system.switch_cpus.iq.int_inst_queue_reads      3362909                       # Number of integer instruction queue reads
system.switch_cpus.iq.int_inst_queue_wakeup_accesses      1067401                       # Number of integer instruction queue wakeup accesses
system.switch_cpus.iq.int_inst_queue_writes      1247617                       # Number of integer instruction queue writes
system.switch_cpus.iq.iqInstsAdded            1123852                       # Number of instructions added to the IQ (excludes non-spec)
system.switch_cpus.iq.iqInstsIssued           1073743                       # Number of instructions issued
system.switch_cpus.iq.iqSquashedInstsExamined       123749                       # Number of squashed instructions iterated over during squash; mainly for profiling
system.switch_cpus.iq.iqSquashedInstsIssued         2537                       # Number of squashed instructions issued
system.switch_cpus.iq.iqSquashedOperandsExamined        83237                       # Number of squashed operands that are examined and possibly removed from graph
system.switch_cpus.iq.issued_per_cycle::samples       790678                       # Number of insts issued each cycle
system.switch_cpus.iq.issued_per_cycle::mean     1.358003                       # Number of insts issued each cycle
system.switch_cpus.iq.issued_per_cycle::stdev     1.255353                       # Number of insts issued each cycle
system.switch_cpus.iq.issued_per_cycle::underflows            0      0.00%      0.00% # Number of insts issued each cycle
system.switch_cpus.iq.issued_per_cycle::0       302159     38.22%     38.22% # Number of insts issued each cycle
system.switch_cpus.iq.issued_per_cycle::1       115505     14.61%     52.82% # Number of insts issued each cycle
system.switch_cpus.iq.issued_per_cycle::2       178590     22.59%     75.41% # Number of insts issued each cycle
system.switch_cpus.iq.issued_per_cycle::3       176638     22.34%     97.75% # Number of insts issued each cycle
system.switch_cpus.iq.issued_per_cycle::4        17786      2.25%    100.00% # Number of insts issued each cycle
system.switch_cpus.iq.issued_per_cycle::5            0      0.00%    100.00% # Number of insts issued each cycle
system.switch_cpus.iq.issued_per_cycle::6            0      0.00%    100.00% # Number of insts issued each cycle
system.switch_cpus.iq.issued_per_cycle::7            0      0.00%    100.00% # Number of insts issued each cycle
system.switch_cpus.iq.issued_per_cycle::8            0      0.00%    100.00% # Number of insts issued each cycle
system.switch_cpus.iq.issued_per_cycle::overflows            0      0.00%    100.00% # Number of insts issued each cycle
system.switch_cpus.iq.issued_per_cycle::min_value            0                       # Number of insts issued each cycle
system.switch_cpus.iq.issued_per_cycle::max_value            4                       # Number of insts issued each cycle
system.switch_cpus.iq.issued_per_cycle::total       790678                       # Number of insts issued each cycle
system.switch_cpus.iq.rate                   1.357356                       # Inst issue rate
system.switch_cpus.iq.vec_alu_accesses              0                       # Number of vector alu accesses
system.switch_cpus.iq.vec_inst_queue_reads            0                       # Number of vector instruction queue reads
system.switch_cpus.iq.vec_inst_queue_wakeup_accesses            0                       # Number of vector instruction queue wakeup accesses
system.switch_cpus.iq.vec_inst_queue_writes            0                       # Number of vector instruction queue writes
system.switch_cpus.memDep0.conflictingLoads       192728                       # Number of conflicting loads.
system.switch_cpus.memDep0.conflictingStores        85792                       # Number of conflicting stores.
system.switch_cpus.memDep0.insertedLoads       459123                       # Number of loads inserted to the mem dependence unit.
system.switch_cpus.memDep0.insertedStores       105537                       # Number of stores inserted to the mem dependence unit.
system.switch_cpus.misc_regfile_reads         2478289                       # number of misc regfile reads
system.switch_cpus.misc_regfile_writes              1                       # number of misc regfile writes
system.switch_cpus.numCycles                   791055                       # number of cpu cycles simulated
system.switch_cpus.numWorkItemsCompleted            0                       # number of work items this cpu completed
system.switch_cpus.numWorkItemsStarted              0                       # number of work items this cpu started
system.switch_cpus.timesIdled                       8                       # Number of times that the entire CPU went into an idle state and unscheduled itself
system.switch_cpus.vec_regfile_writes              44                       # number of vector regfile writes
system.tol2bus.snoop_filter.hit_multi_requests            0                       # Number of requests hitting in the snoop filter with multiple (>1) holders of the requested data.
system.tol2bus.snoop_filter.hit_multi_snoops            0                       # Number of snoops hitting in the snoop filter with multiple (>1) holders of the requested data.
system.tol2bus.snoop_filter.hit_single_requests        24536                       # Number of requests hitting in the snoop filter with a single holder of the requested data.
system.tol2bus.snoop_filter.hit_single_snoops            0                       # Number of snoops hitting in the snoop filter with a single holder of the requested data.
system.tol2bus.snoop_filter.tot_requests        49338                       # Total number of requests made to the snoop filter.
system.tol2bus.snoop_filter.tot_snoops              0                       # Total number of snoops made to the snoop filter.
system.clk_domain.clock                          1000                       # Clock period in ticks
system.cpu.dcache.demand_hits::.cpu.data            7                       # number of demand (read+write) hits
system.cpu.dcache.demand_hits::.switch_cpus.data       304171                       # number of demand (read+write) hits
system.cpu.dcache.demand_hits::total           304178                       # number of demand (read+write) hits
system.cpu.dcache.overall_hits::.cpu.data            7                       # number of overall hits
system.cpu.dcache.overall_hits::.switch_cpus.data       304171                       # number of overall hits
system.cpu.dcache.overall_hits::total          304178                       # number of overall hits
system.cpu.dcache.demand_misses::.cpu.data            6                       # number of demand (read+write) misses
system.cpu.dcache.demand_misses::.switch_cpus.data        35803                       # number of demand (read+write) misses
system.cpu.dcache.demand_misses::total          35809                       # number of demand (read+write) misses
system.cpu.dcache.overall_misses::.cpu.data            6                       # number of overall misses
system.cpu.dcache.overall_misses::.switch_cpus.data        35803                       # number of overall misses
system.cpu.dcache.overall_misses::total         35809                       # number of overall misses
system.cpu.dcache.demand_miss_latency::.switch_cpus.data    738046400                       # number of demand (read+write) miss cycles
system.cpu.dcache.demand_miss_latency::total    738046400                       # number of demand (read+write) miss cycles
system.cpu.dcache.overall_miss_latency::.switch_cpus.data    738046400                       # number of overall miss cycles
system.cpu.dcache.overall_miss_latency::total    738046400                       # number of overall miss cycles
system.cpu.dcache.demand_accesses::.cpu.data           13                       # number of demand (read+write) accesses
system.cpu.dcache.demand_accesses::.switch_cpus.data       339974                       # number of demand (read+write) accesses
system.cpu.dcache.demand_accesses::total       339987                       # number of demand (read+write) accesses
system.cpu.dcache.overall_accesses::.cpu.data           13                       # number of overall (read+write) accesses
system.cpu.dcache.overall_accesses::.switch_cpus.data       339974                       # number of overall (read+write) accesses
system.cpu.dcache.overall_accesses::total       339987                       # number of overall (read+write) accesses
system.cpu.dcache.demand_miss_rate::.cpu.data     0.461538                       # miss rate for demand accesses
system.cpu.dcache.demand_miss_rate::.switch_cpus.data     0.105311                       # miss rate for demand accesses
system.cpu.dcache.demand_miss_rate::total     0.105325                       # miss rate for demand accesses
system.cpu.dcache.overall_miss_rate::.cpu.data     0.461538                       # miss rate for overall accesses
system.cpu.dcache.overall_miss_rate::.switch_cpus.data     0.105311                       # miss rate for overall accesses
system.cpu.dcache.overall_miss_rate::total     0.105325                       # miss rate for overall accesses
system.cpu.dcache.demand_avg_miss_latency::.switch_cpus.data 20614.093791                       # average overall miss latency
system.cpu.dcache.demand_avg_miss_latency::total 20610.639783                       # average overall miss latency
system.cpu.dcache.overall_avg_miss_latency::.switch_cpus.data 20614.093791                       # average overall miss latency
system.cpu.dcache.overall_avg_miss_latency::total 20610.639783                       # average overall miss latency
system.cpu.dcache.blocked_cycles::no_mshrs         1220                       # number of cycles access was blocked
system.cpu.dcache.blocked_cycles::no_targets         1120                       # number of cycles access was blocked
system.cpu.dcache.blocked::no_mshrs                32                       # number of cycles access was blocked
system.cpu.dcache.blocked::no_targets              12                       # number of cycles access was blocked
system.cpu.dcache.avg_blocked_cycles::no_mshrs    38.125000                       # average number of cycles each access was blocked
system.cpu.dcache.avg_blocked_cycles::no_targets    93.333333                       # average number of cycles each access was blocked
system.cpu.dcache.writebacks::.writebacks        24536                       # number of writebacks
system.cpu.dcache.writebacks::total             24536                       # number of writebacks
system.cpu.dcache.demand_mshr_hits::.switch_cpus.data        11017                       # number of demand (read+write) MSHR hits
system.cpu.dcache.demand_mshr_hits::total        11017                       # number of demand (read+write) MSHR hits
system.cpu.dcache.overall_mshr_hits::.switch_cpus.data        11017                       # number of overall MSHR hits
system.cpu.dcache.overall_mshr_hits::total        11017                       # number of overall MSHR hits
system.cpu.dcache.demand_mshr_misses::.switch_cpus.data        24786                       # number of demand (read+write) MSHR misses
system.cpu.dcache.demand_mshr_misses::total        24786                       # number of demand (read+write) MSHR misses
system.cpu.dcache.overall_mshr_misses::.switch_cpus.data        24786                       # number of overall MSHR misses
system.cpu.dcache.overall_mshr_misses::total        24786                       # number of overall MSHR misses
system.cpu.dcache.demand_mshr_miss_latency::.switch_cpus.data    313977200                       # number of demand (read+write) MSHR miss cycles
system.cpu.dcache.demand_mshr_miss_latency::total    313977200                       # number of demand (read+write) MSHR miss cycles
system.cpu.dcache.overall_mshr_miss_latency::.switch_cpus.data    313977200                       # number of overall MSHR miss cycles
system.cpu.dcache.overall_mshr_miss_latency::total    313977200                       # number of overall MSHR miss cycles
system.cpu.dcache.demand_mshr_miss_rate::.switch_cpus.data     0.072906                       # mshr miss rate for demand accesses
system.cpu.dcache.demand_mshr_miss_rate::total     0.072903                       # mshr miss rate for demand accesses
system.cpu.dcache.overall_mshr_miss_rate::.switch_cpus.data     0.072906                       # mshr miss rate for overall accesses
system.cpu.dcache.overall_mshr_miss_rate::total     0.072903                       # mshr miss rate for overall accesses
system.cpu.dcache.demand_avg_mshr_miss_latency::.switch_cpus.data 12667.521988                       # average overall mshr miss latency
system.cpu.dcache.demand_avg_mshr_miss_latency::total 12667.521988                       # average overall mshr miss latency
system.cpu.dcache.overall_avg_mshr_miss_latency::.switch_cpus.data 12667.521988                       # average overall mshr miss latency
system.cpu.dcache.overall_avg_mshr_miss_latency::total 12667.521988                       # average overall mshr miss latency
system.cpu.dcache.replacements                  24536                       # number of replacements
system.cpu.dcache.ReadReq_hits::.cpu.data            5                       # number of ReadReq hits
system.cpu.dcache.ReadReq_hits::.switch_cpus.data       211562                       # number of ReadReq hits
system.cpu.dcache.ReadReq_hits::total          211567                       # number of ReadReq hits
system.cpu.dcache.ReadReq_misses::.cpu.data            6                       # number of ReadReq misses
system.cpu.dcache.ReadReq_misses::.switch_cpus.data        35741                       # number of ReadReq misses
system.cpu.dcache.ReadReq_misses::total         35747                       # number of ReadReq misses
system.cpu.dcache.ReadReq_miss_latency::.switch_cpus.data    736507200                       # number of ReadReq miss cycles
system.cpu.dcache.ReadReq_miss_latency::total    736507200                       # number of ReadReq miss cycles
system.cpu.dcache.ReadReq_accesses::.cpu.data           11                       # number of ReadReq accesses(hits+misses)
system.cpu.dcache.ReadReq_accesses::.switch_cpus.data       247303                       # number of ReadReq accesses(hits+misses)
system.cpu.dcache.ReadReq_accesses::total       247314                       # number of ReadReq accesses(hits+misses)
system.cpu.dcache.ReadReq_miss_rate::.cpu.data     0.545455                       # miss rate for ReadReq accesses
system.cpu.dcache.ReadReq_miss_rate::.switch_cpus.data     0.144523                       # miss rate for ReadReq accesses
system.cpu.dcache.ReadReq_miss_rate::total     0.144541                       # miss rate for ReadReq accesses
system.cpu.dcache.ReadReq_avg_miss_latency::.switch_cpus.data 20606.787723                       # average ReadReq miss latency
system.cpu.dcache.ReadReq_avg_miss_latency::total 20603.328951                       # average ReadReq miss latency
system.cpu.dcache.ReadReq_mshr_hits::.switch_cpus.data        11016                       # number of ReadReq MSHR hits
system.cpu.dcache.ReadReq_mshr_hits::total        11016                       # number of ReadReq MSHR hits
system.cpu.dcache.ReadReq_mshr_misses::.switch_cpus.data        24725                       # number of ReadReq MSHR misses
system.cpu.dcache.ReadReq_mshr_misses::total        24725                       # number of ReadReq MSHR misses
system.cpu.dcache.ReadReq_mshr_miss_latency::.switch_cpus.data    312495600                       # number of ReadReq MSHR miss cycles
system.cpu.dcache.ReadReq_mshr_miss_latency::total    312495600                       # number of ReadReq MSHR miss cycles
system.cpu.dcache.ReadReq_mshr_miss_rate::.switch_cpus.data     0.099979                       # mshr miss rate for ReadReq accesses
system.cpu.dcache.ReadReq_mshr_miss_rate::total     0.099974                       # mshr miss rate for ReadReq accesses
system.cpu.dcache.ReadReq_avg_mshr_miss_latency::.switch_cpus.data 12638.851365                       # average ReadReq mshr miss latency
system.cpu.dcache.ReadReq_avg_mshr_miss_latency::total 12638.851365                       # average ReadReq mshr miss latency
system.cpu.dcache.WriteReq_hits::.cpu.data            2                       # number of WriteReq hits
system.cpu.dcache.WriteReq_hits::.switch_cpus.data        92609                       # number of WriteReq hits
system.cpu.dcache.WriteReq_hits::total          92611                       # number of WriteReq hits
system.cpu.dcache.WriteReq_misses::.switch_cpus.data           62                       # number of WriteReq misses
system.cpu.dcache.WriteReq_misses::total           62                       # number of WriteReq misses
system.cpu.dcache.WriteReq_miss_latency::.switch_cpus.data      1539200                       # number of WriteReq miss cycles
system.cpu.dcache.WriteReq_miss_latency::total      1539200                       # number of WriteReq miss cycles
system.cpu.dcache.WriteReq_accesses::.cpu.data            2                       # number of WriteReq accesses(hits+misses)
system.cpu.dcache.WriteReq_accesses::.switch_cpus.data        92671                       # number of WriteReq accesses(hits+misses)
system.cpu.dcache.WriteReq_accesses::total        92673                       # number of WriteReq accesses(hits+misses)
system.cpu.dcache.WriteReq_miss_rate::.switch_cpus.data     0.000669                       # miss rate for WriteReq accesses
system.cpu.dcache.WriteReq_miss_rate::total     0.000669                       # miss rate for WriteReq accesses
system.cpu.dcache.WriteReq_avg_miss_latency::.switch_cpus.data 24825.806452                       # average WriteReq miss latency
system.cpu.dcache.WriteReq_avg_miss_latency::total 24825.806452                       # average WriteReq miss latency
system.cpu.dcache.WriteReq_mshr_hits::.switch_cpus.data            1                       # number of WriteReq MSHR hits
system.cpu.dcache.WriteReq_mshr_hits::total            1                       # number of WriteReq MSHR hits
system.cpu.dcache.WriteReq_mshr_misses::.switch_cpus.data           61                       # number of WriteReq MSHR misses
system.cpu.dcache.WriteReq_mshr_misses::total           61                       # number of WriteReq MSHR misses
system.cpu.dcache.WriteReq_mshr_miss_latency::.switch_cpus.data      1481600                       # number of WriteReq MSHR miss cycles
system.cpu.dcache.WriteReq_mshr_miss_latency::total      1481600                       # number of WriteReq MSHR miss cycles
system.cpu.dcache.WriteReq_mshr_miss_rate::.switch_cpus.data     0.000658                       # mshr miss rate for WriteReq accesses
system.cpu.dcache.WriteReq_mshr_miss_rate::total     0.000658                       # mshr miss rate for WriteReq accesses
system.cpu.dcache.WriteReq_avg_mshr_miss_latency::.switch_cpus.data 24288.524590                       # average WriteReq mshr miss latency
system.cpu.dcache.WriteReq_avg_mshr_miss_latency::total 24288.524590                       # average WriteReq mshr miss latency
system.cpu.dcache.power_state.pwrStateResidencyTicks::UNDEFINED 334098487600                       # Cumulative time (in ticks) in various power states
system.cpu.dcache.tags.tagsinuse           253.081964                       # Cycle average of tags in use
system.cpu.dcache.tags.total_refs               82910                       # Total number of references to valid blocks.
system.cpu.dcache.tags.sampled_refs             24536                       # Sample count of references to valid blocks.
system.cpu.dcache.tags.avg_refs              3.379116                       # Average number of references to valid blocks.
system.cpu.dcache.tags.warmup_cycle      333782056000                       # Cycle when the warmup percentage was hit.
system.cpu.dcache.tags.occ_blocks::.cpu.data     3.080140                       # Average occupied blocks per requestor
system.cpu.dcache.tags.occ_blocks::.switch_cpus.data   250.001824                       # Average occupied blocks per requestor
system.cpu.dcache.tags.occ_percent::.cpu.data     0.012032                       # Average percentage of cache occupancy
system.cpu.dcache.tags.occ_percent::.switch_cpus.data     0.976570                       # Average percentage of cache occupancy
system.cpu.dcache.tags.occ_percent::total     0.988601                       # Average percentage of cache occupancy
system.cpu.dcache.tags.occ_task_id_blocks::1024          256                       # Occupied blocks per task id
system.cpu.dcache.tags.age_task_id_blocks_1024::0          232                       # Occupied blocks per task id
system.cpu.dcache.tags.age_task_id_blocks_1024::1           21                       # Occupied blocks per task id
system.cpu.dcache.tags.age_task_id_blocks_1024::2            3                       # Occupied blocks per task id
system.cpu.dcache.tags.occ_task_id_percent::1024            1                       # Percentage of cache occupancy per task id
system.cpu.dcache.tags.tag_accesses           2744688                       # Number of tag accesses
system.cpu.dcache.tags.data_accesses          2744688                       # Number of data accesses
system.cpu.dcache.tags.power_state.pwrStateResidencyTicks::UNDEFINED 334098487600                       # Cumulative time (in ticks) in various power states
system.cpu.dtb.instHits                             0                       # ITB inst hits
system.cpu.dtb.instMisses                           0                       # ITB inst misses
system.cpu.dtb.readHits                             0                       # DTB read hits
system.cpu.dtb.readMisses                           0                       # DTB read misses
system.cpu.dtb.writeHits                            0                       # DTB write hits
system.cpu.dtb.writeMisses                          0                       # DTB write misses
system.cpu.dtb.inserts                              0                       # Number of times an entry is inserted into the TLB
system.cpu.dtb.flushTlb                             2                       # Number of times complete TLB was flushed
system.cpu.dtb.flushTlbMva                          0                       # Number of times TLB was flushed by MVA
system.cpu.dtb.flushTlbMvaAsid                      0                       # Number of times TLB was flushed by MVA & ASID
system.cpu.dtb.flushTlbAsid                         0                       # Number of times TLB was flushed by ASID
system.cpu.dtb.flushedEntries                       0                       # Number of entries that have been flushed from TLB
system.cpu.dtb.alignFaults                          0                       # Number of TLB faults due to alignment restrictions
system.cpu.dtb.prefetchFaults                       0                       # Number of TLB faults due to prefetch
system.cpu.dtb.domainFaults                         0                       # Number of TLB faults due to domain restrictions
system.cpu.dtb.permsFaults                          0                       # Number of TLB faults due to permissions restrictions
system.cpu.dtb.readAccesses                         0                       # DTB read accesses
system.cpu.dtb.writeAccesses                        0                       # DTB write accesses
system.cpu.dtb.instAccesses                         0                       # ITB inst accesses
system.cpu.dtb.hits                                 0                       # Total TLB (inst and data) hits
system.cpu.dtb.misses                               0                       # Total TLB (inst and data) misses
system.cpu.dtb.accesses                             0                       # Total TLB (inst and data) accesses
system.cpu.dtb.stage2_mmu.stage2_tlb.instHits            0                       # ITB inst hits
system.cpu.dtb.stage2_mmu.stage2_tlb.instMisses            0                       # ITB inst misses
system.cpu.dtb.stage2_mmu.stage2_tlb.readHits            0                       # DTB read hits
system.cpu.dtb.stage2_mmu.stage2_tlb.readMisses            0                       # DTB read misses
system.cpu.dtb.stage2_mmu.stage2_tlb.writeHits            0                       # DTB write hits
system.cpu.dtb.stage2_mmu.stage2_tlb.writeMisses            0                       # DTB write misses
system.cpu.dtb.stage2_mmu.stage2_tlb.inserts            0                       # Number of times an entry is inserted into the TLB
system.cpu.dtb.stage2_mmu.stage2_tlb.flushTlb            0                       # Number of times complete TLB was flushed
system.cpu.dtb.stage2_mmu.stage2_tlb.flushTlbMva            0                       # Number of times TLB was flushed by MVA
system.cpu.dtb.stage2_mmu.stage2_tlb.flushTlbMvaAsid            0                       # Number of times TLB was flushed by MVA & ASID
system.cpu.dtb.stage2_mmu.stage2_tlb.flushTlbAsid            0                       # Number of times TLB was flushed by ASID
system.cpu.dtb.stage2_mmu.stage2_tlb.flushedEntries            0                       # Number of entries that have been flushed from TLB
system.cpu.dtb.stage2_mmu.stage2_tlb.alignFaults            0                       # Number of TLB faults due to alignment restrictions
system.cpu.dtb.stage2_mmu.stage2_tlb.prefetchFaults            0                       # Number of TLB faults due to prefetch
system.cpu.dtb.stage2_mmu.stage2_tlb.domainFaults            0                       # Number of TLB faults due to domain restrictions
system.cpu.dtb.stage2_mmu.stage2_tlb.permsFaults            0                       # Number of TLB faults due to permissions restrictions
system.cpu.dtb.stage2_mmu.stage2_tlb.readAccesses            0                       # DTB read accesses
system.cpu.dtb.stage2_mmu.stage2_tlb.writeAccesses            0                       # DTB write accesses
system.cpu.dtb.stage2_mmu.stage2_tlb.instAccesses            0                       # ITB inst accesses
system.cpu.dtb.stage2_mmu.stage2_tlb.hits            0                       # Total TLB (inst and data) hits
system.cpu.dtb.stage2_mmu.stage2_tlb.misses            0                       # Total TLB (inst and data) misses
system.cpu.dtb.stage2_mmu.stage2_tlb.accesses            0                       # Total TLB (inst and data) accesses
system.cpu.dtb.stage2_mmu.stage2_tlb.walker.walks            0                       # Table walker walks requested
system.cpu.dtb.stage2_mmu.stage2_tlb.walker.requestOrigin_Requested::Data            0                       # Table walker requests started/completed, data/inst
system.cpu.dtb.stage2_mmu.stage2_tlb.walker.requestOrigin_Requested::Inst            0                       # Table walker requests started/completed, data/inst
system.cpu.dtb.stage2_mmu.stage2_tlb.walker.requestOrigin_Requested::total            0                       # Table walker requests started/completed, data/inst
system.cpu.dtb.stage2_mmu.stage2_tlb.walker.requestOrigin_Completed::Data            0                       # Table walker requests started/completed, data/inst
system.cpu.dtb.stage2_mmu.stage2_tlb.walker.requestOrigin_Completed::Inst            0                       # Table walker requests started/completed, data/inst
system.cpu.dtb.stage2_mmu.stage2_tlb.walker.requestOrigin_Completed::total            0                       # Table walker requests started/completed, data/inst
system.cpu.dtb.stage2_mmu.stage2_tlb.walker.requestOrigin::total            0                       # Table walker requests started/completed, data/inst
system.cpu.dtb.stage2_mmu.stage2_tlb.walker.power_state.pwrStateResidencyTicks::UNDEFINED 334098487600                       # Cumulative time (in ticks) in various power states
system.cpu.dtb.walker.walks                         0                       # Table walker walks requested
system.cpu.dtb.walker.requestOrigin_Requested::Data            0                       # Table walker requests started/completed, data/inst
system.cpu.dtb.walker.requestOrigin_Requested::Inst            0                       # Table walker requests started/completed, data/inst
system.cpu.dtb.walker.requestOrigin_Requested::total            0                       # Table walker requests started/completed, data/inst
system.cpu.dtb.walker.requestOrigin_Completed::Data            0                       # Table walker requests started/completed, data/inst
system.cpu.dtb.walker.requestOrigin_Completed::Inst            0                       # Table walker requests started/completed, data/inst
system.cpu.dtb.walker.requestOrigin_Completed::total            0                       # Table walker requests started/completed, data/inst
system.cpu.dtb.walker.requestOrigin::total            0                       # Table walker requests started/completed, data/inst
system.cpu.dtb.walker.power_state.pwrStateResidencyTicks::UNDEFINED 334098487600                       # Cumulative time (in ticks) in various power states
system.cpu.dtb_walker_cache.blocked_cycles::no_mshrs            0                       # number of cycles access was blocked
system.cpu.dtb_walker_cache.blocked_cycles::no_targets            0                       # number of cycles access was blocked
system.cpu.dtb_walker_cache.blocked::no_mshrs            0                       # number of cycles access was blocked
system.cpu.dtb_walker_cache.blocked::no_targets            0                       # number of cycles access was blocked
system.cpu.dtb_walker_cache.avg_blocked_cycles::no_mshrs          nan                       # average number of cycles each access was blocked
system.cpu.dtb_walker_cache.avg_blocked_cycles::no_targets          nan                       # average number of cycles each access was blocked
system.cpu.dtb_walker_cache.replacements            0                       # number of replacements
system.cpu.dtb_walker_cache.power_state.pwrStateResidencyTicks::UNDEFINED 334098487600                       # Cumulative time (in ticks) in various power states
system.cpu.dtb_walker_cache.tags.tagsinuse            0                       # Cycle average of tags in use
system.cpu.dtb_walker_cache.tags.total_refs            0                       # Total number of references to valid blocks.
system.cpu.dtb_walker_cache.tags.sampled_refs            0                       # Sample count of references to valid blocks.
system.cpu.dtb_walker_cache.tags.avg_refs          nan                       # Average number of references to valid blocks.
system.cpu.dtb_walker_cache.tags.warmup_cycle            0                       # Cycle when the warmup percentage was hit.
system.cpu.dtb_walker_cache.tags.tag_accesses            0                       # Number of tag accesses
system.cpu.dtb_walker_cache.tags.data_accesses            0                       # Number of data accesses
system.cpu.dtb_walker_cache.tags.power_state.pwrStateResidencyTicks::UNDEFINED 334098487600                       # Cumulative time (in ticks) in various power states
system.cpu.icache.demand_hits::.cpu.inst           23                       # number of demand (read+write) hits
system.cpu.icache.demand_hits::.switch_cpus.inst       164527                       # number of demand (read+write) hits
system.cpu.icache.demand_hits::total           164550                       # number of demand (read+write) hits
system.cpu.icache.overall_hits::.cpu.inst           23                       # number of overall hits
system.cpu.icache.overall_hits::.switch_cpus.inst       164527                       # number of overall hits
system.cpu.icache.overall_hits::total          164550                       # number of overall hits
system.cpu.icache.demand_misses::.cpu.inst            2                       # number of demand (read+write) misses
system.cpu.icache.demand_misses::.switch_cpus.inst           27                       # number of demand (read+write) misses
system.cpu.icache.demand_misses::total             29                       # number of demand (read+write) misses
system.cpu.icache.overall_misses::.cpu.inst            2                       # number of overall misses
system.cpu.icache.overall_misses::.switch_cpus.inst           27                       # number of overall misses
system.cpu.icache.overall_misses::total            29                       # number of overall misses
system.cpu.icache.demand_miss_latency::.switch_cpus.inst      1324000                       # number of demand (read+write) miss cycles
system.cpu.icache.demand_miss_latency::total      1324000                       # number of demand (read+write) miss cycles
system.cpu.icache.overall_miss_latency::.switch_cpus.inst      1324000                       # number of overall miss cycles
system.cpu.icache.overall_miss_latency::total      1324000                       # number of overall miss cycles
system.cpu.icache.demand_accesses::.cpu.inst           25                       # number of demand (read+write) accesses
system.cpu.icache.demand_accesses::.switch_cpus.inst       164554                       # number of demand (read+write) accesses
system.cpu.icache.demand_accesses::total       164579                       # number of demand (read+write) accesses
system.cpu.icache.overall_accesses::.cpu.inst           25                       # number of overall (read+write) accesses
system.cpu.icache.overall_accesses::.switch_cpus.inst       164554                       # number of overall (read+write) accesses
system.cpu.icache.overall_accesses::total       164579                       # number of overall (read+write) accesses
system.cpu.icache.demand_miss_rate::.cpu.inst     0.080000                       # miss rate for demand accesses
system.cpu.icache.demand_miss_rate::.switch_cpus.inst     0.000164                       # miss rate for demand accesses
system.cpu.icache.demand_miss_rate::total     0.000176                       # miss rate for demand accesses
system.cpu.icache.overall_miss_rate::.cpu.inst     0.080000                       # miss rate for overall accesses
system.cpu.icache.overall_miss_rate::.switch_cpus.inst     0.000164                       # miss rate for overall accesses
system.cpu.icache.overall_miss_rate::total     0.000176                       # miss rate for overall accesses
system.cpu.icache.demand_avg_miss_latency::.switch_cpus.inst 49037.037037                       # average overall miss latency
system.cpu.icache.demand_avg_miss_latency::total 45655.172414                       # average overall miss latency
system.cpu.icache.overall_avg_miss_latency::.switch_cpus.inst 49037.037037                       # average overall miss latency
system.cpu.icache.overall_avg_miss_latency::total 45655.172414                       # average overall miss latency
system.cpu.icache.blocked_cycles::no_mshrs          185                       # number of cycles access was blocked
system.cpu.icache.blocked_cycles::no_targets            0                       # number of cycles access was blocked
system.cpu.icache.blocked::no_mshrs                 1                       # number of cycles access was blocked
system.cpu.icache.blocked::no_targets               0                       # number of cycles access was blocked
system.cpu.icache.avg_blocked_cycles::no_mshrs          185                       # average number of cycles each access was blocked
system.cpu.icache.avg_blocked_cycles::no_targets          nan                       # average number of cycles each access was blocked
system.cpu.icache.demand_mshr_hits::.switch_cpus.inst           19                       # number of demand (read+write) MSHR hits
system.cpu.icache.demand_mshr_hits::total           19                       # number of demand (read+write) MSHR hits
system.cpu.icache.overall_mshr_hits::.switch_cpus.inst           19                       # number of overall MSHR hits
system.cpu.icache.overall_mshr_hits::total           19                       # number of overall MSHR hits
system.cpu.icache.demand_mshr_misses::.switch_cpus.inst            8                       # number of demand (read+write) MSHR misses
system.cpu.icache.demand_mshr_misses::total            8                       # number of demand (read+write) MSHR misses
system.cpu.icache.overall_mshr_misses::.switch_cpus.inst            8                       # number of overall MSHR misses
system.cpu.icache.overall_mshr_misses::total            8                       # number of overall MSHR misses
system.cpu.icache.demand_mshr_miss_latency::.switch_cpus.inst       604400                       # number of demand (read+write) MSHR miss cycles
system.cpu.icache.demand_mshr_miss_latency::total       604400                       # number of demand (read+write) MSHR miss cycles
system.cpu.icache.overall_mshr_miss_latency::.switch_cpus.inst       604400                       # number of overall MSHR miss cycles
system.cpu.icache.overall_mshr_miss_latency::total       604400                       # number of overall MSHR miss cycles
system.cpu.icache.demand_mshr_miss_rate::.switch_cpus.inst     0.000049                       # mshr miss rate for demand accesses
system.cpu.icache.demand_mshr_miss_rate::total     0.000049                       # mshr miss rate for demand accesses
system.cpu.icache.overall_mshr_miss_rate::.switch_cpus.inst     0.000049                       # mshr miss rate for overall accesses
system.cpu.icache.overall_mshr_miss_rate::total     0.000049                       # mshr miss rate for overall accesses
system.cpu.icache.demand_avg_mshr_miss_latency::.switch_cpus.inst        75550                       # average overall mshr miss latency
system.cpu.icache.demand_avg_mshr_miss_latency::total        75550                       # average overall mshr miss latency
system.cpu.icache.overall_avg_mshr_miss_latency::.switch_cpus.inst        75550                       # average overall mshr miss latency
system.cpu.icache.overall_avg_mshr_miss_latency::total        75550                       # average overall mshr miss latency
system.cpu.icache.replacements                      0                       # number of replacements
system.cpu.icache.ReadReq_hits::.cpu.inst           23                       # number of ReadReq hits
system.cpu.icache.ReadReq_hits::.switch_cpus.inst       164527                       # number of ReadReq hits
system.cpu.icache.ReadReq_hits::total          164550                       # number of ReadReq hits
system.cpu.icache.ReadReq_misses::.cpu.inst            2                       # number of ReadReq misses
system.cpu.icache.ReadReq_misses::.switch_cpus.inst           27                       # number of ReadReq misses
system.cpu.icache.ReadReq_misses::total            29                       # number of ReadReq misses
system.cpu.icache.ReadReq_miss_latency::.switch_cpus.inst      1324000                       # number of ReadReq miss cycles
system.cpu.icache.ReadReq_miss_latency::total      1324000                       # number of ReadReq miss cycles
system.cpu.icache.ReadReq_accesses::.cpu.inst           25                       # number of ReadReq accesses(hits+misses)
system.cpu.icache.ReadReq_accesses::.switch_cpus.inst       164554                       # number of ReadReq accesses(hits+misses)
system.cpu.icache.ReadReq_accesses::total       164579                       # number of ReadReq accesses(hits+misses)
system.cpu.icache.ReadReq_miss_rate::.cpu.inst     0.080000                       # miss rate for ReadReq accesses
system.cpu.icache.ReadReq_miss_rate::.switch_cpus.inst     0.000164                       # miss rate for ReadReq accesses
system.cpu.icache.ReadReq_miss_rate::total     0.000176                       # miss rate for ReadReq accesses
system.cpu.icache.ReadReq_avg_miss_latency::.switch_cpus.inst 49037.037037                       # average ReadReq miss latency
system.cpu.icache.ReadReq_avg_miss_latency::total 45655.172414                       # average ReadReq miss latency
system.cpu.icache.ReadReq_mshr_hits::.switch_cpus.inst           19                       # number of ReadReq MSHR hits
system.cpu.icache.ReadReq_mshr_hits::total           19                       # number of ReadReq MSHR hits
system.cpu.icache.ReadReq_mshr_misses::.switch_cpus.inst            8                       # number of ReadReq MSHR misses
system.cpu.icache.ReadReq_mshr_misses::total            8                       # number of ReadReq MSHR misses
system.cpu.icache.ReadReq_mshr_miss_latency::.switch_cpus.inst       604400                       # number of ReadReq MSHR miss cycles
system.cpu.icache.ReadReq_mshr_miss_latency::total       604400                       # number of ReadReq MSHR miss cycles
system.cpu.icache.ReadReq_mshr_miss_rate::.switch_cpus.inst     0.000049                       # mshr miss rate for ReadReq accesses
system.cpu.icache.ReadReq_mshr_miss_rate::total     0.000049                       # mshr miss rate for ReadReq accesses
system.cpu.icache.ReadReq_avg_mshr_miss_latency::.switch_cpus.inst        75550                       # average ReadReq mshr miss latency
system.cpu.icache.ReadReq_avg_mshr_miss_latency::total        75550                       # average ReadReq mshr miss latency
system.cpu.icache.power_state.pwrStateResidencyTicks::UNDEFINED 334098487600                       # Cumulative time (in ticks) in various power states
system.cpu.icache.tags.tagsinuse             9.987253                       # Cycle average of tags in use
system.cpu.icache.tags.total_refs                   0                       # Total number of references to valid blocks.
system.cpu.icache.tags.sampled_refs                 0                       # Sample count of references to valid blocks.
system.cpu.icache.tags.avg_refs                   nan                       # Average number of references to valid blocks.
system.cpu.icache.tags.warmup_cycle      333782056000                       # Cycle when the warmup percentage was hit.
system.cpu.icache.tags.occ_blocks::.cpu.inst     1.999991                       # Average occupied blocks per requestor
system.cpu.icache.tags.occ_blocks::.switch_cpus.inst     7.987262                       # Average occupied blocks per requestor
system.cpu.icache.tags.occ_percent::.cpu.inst     0.003906                       # Average percentage of cache occupancy
system.cpu.icache.tags.occ_percent::.switch_cpus.inst     0.015600                       # Average percentage of cache occupancy
system.cpu.icache.tags.occ_percent::total     0.019506                       # Average percentage of cache occupancy
system.cpu.icache.tags.occ_task_id_blocks::1024           10                       # Occupied blocks per task id
system.cpu.icache.tags.age_task_id_blocks_1024::2           10                       # Occupied blocks per task id
system.cpu.icache.tags.occ_task_id_percent::1024     0.019531                       # Percentage of cache occupancy per task id
system.cpu.icache.tags.tag_accesses           1316642                       # Number of tag accesses
system.cpu.icache.tags.data_accesses          1316642                       # Number of data accesses
system.cpu.icache.tags.power_state.pwrStateResidencyTicks::UNDEFINED 334098487600                       # Cumulative time (in ticks) in various power states
system.cpu.itb.instHits                             0                       # ITB inst hits
system.cpu.itb.instMisses                           0                       # ITB inst misses
system.cpu.itb.readHits                             0                       # DTB read hits
system.cpu.itb.readMisses                           0                       # DTB read misses
system.cpu.itb.writeHits                            0                       # DTB write hits
system.cpu.itb.writeMisses                          0                       # DTB write misses
system.cpu.itb.inserts                              0                       # Number of times an entry is inserted into the TLB
system.cpu.itb.flushTlb                             2                       # Number of times complete TLB was flushed
system.cpu.itb.flushTlbMva                          0                       # Number of times TLB was flushed by MVA
system.cpu.itb.flushTlbMvaAsid                      0                       # Number of times TLB was flushed by MVA & ASID
system.cpu.itb.flushTlbAsid                         0                       # Number of times TLB was flushed by ASID
system.cpu.itb.flushedEntries                       0                       # Number of entries that have been flushed from TLB
system.cpu.itb.alignFaults                          0                       # Number of TLB faults due to alignment restrictions
system.cpu.itb.prefetchFaults                       0                       # Number of TLB faults due to prefetch
system.cpu.itb.domainFaults                         0                       # Number of TLB faults due to domain restrictions
system.cpu.itb.permsFaults                          0                       # Number of TLB faults due to permissions restrictions
system.cpu.itb.readAccesses                         0                       # DTB read accesses
system.cpu.itb.writeAccesses                        0                       # DTB write accesses
system.cpu.itb.instAccesses                         0                       # ITB inst accesses
system.cpu.itb.hits                                 0                       # Total TLB (inst and data) hits
system.cpu.itb.misses                               0                       # Total TLB (inst and data) misses
system.cpu.itb.accesses                             0                       # Total TLB (inst and data) accesses
system.cpu.itb.stage2_mmu.stage2_tlb.instHits            0                       # ITB inst hits
system.cpu.itb.stage2_mmu.stage2_tlb.instMisses            0                       # ITB inst misses
system.cpu.itb.stage2_mmu.stage2_tlb.readHits            0                       # DTB read hits
system.cpu.itb.stage2_mmu.stage2_tlb.readMisses            0                       # DTB read misses
system.cpu.itb.stage2_mmu.stage2_tlb.writeHits            0                       # DTB write hits
system.cpu.itb.stage2_mmu.stage2_tlb.writeMisses            0                       # DTB write misses
system.cpu.itb.stage2_mmu.stage2_tlb.inserts            0                       # Number of times an entry is inserted into the TLB
system.cpu.itb.stage2_mmu.stage2_tlb.flushTlb            0                       # Number of times complete TLB was flushed
system.cpu.itb.stage2_mmu.stage2_tlb.flushTlbMva            0                       # Number of times TLB was flushed by MVA
system.cpu.itb.stage2_mmu.stage2_tlb.flushTlbMvaAsid            0                       # Number of times TLB was flushed by MVA & ASID
system.cpu.itb.stage2_mmu.stage2_tlb.flushTlbAsid            0                       # Number of times TLB was flushed by ASID
system.cpu.itb.stage2_mmu.stage2_tlb.flushedEntries            0                       # Number of entries that have been flushed from TLB
system.cpu.itb.stage2_mmu.stage2_tlb.alignFaults            0                       # Number of TLB faults due to alignment restrictions
system.cpu.itb.stage2_mmu.stage2_tlb.prefetchFaults            0                       # Number of TLB faults due to prefetch
system.cpu.itb.stage2_mmu.stage2_tlb.domainFaults            0                       # Number of TLB faults due to domain restrictions
system.cpu.itb.stage2_mmu.stage2_tlb.permsFaults            0                       # Number of TLB faults due to permissions restrictions
system.cpu.itb.stage2_mmu.stage2_tlb.readAccesses            0                       # DTB read accesses
system.cpu.itb.stage2_mmu.stage2_tlb.writeAccesses            0                       # DTB write accesses
system.cpu.itb.stage2_mmu.stage2_tlb.instAccesses            0                       # ITB inst accesses
system.cpu.itb.stage2_mmu.stage2_tlb.hits            0                       # Total TLB (inst and data) hits
system.cpu.itb.stage2_mmu.stage2_tlb.misses            0                       # Total TLB (inst and data) misses
system.cpu.itb.stage2_mmu.stage2_tlb.accesses            0                       # Total TLB (inst and data) accesses
system.cpu.itb.stage2_mmu.stage2_tlb.walker.walks            0                       # Table walker walks requested
system.cpu.itb.stage2_mmu.stage2_tlb.walker.requestOrigin_Requested::Data            0                       # Table walker requests started/completed, data/inst
system.cpu.itb.stage2_mmu.stage2_tlb.walker.requestOrigin_Requested::Inst            0                       # Table walker requests started/completed, data/inst
system.cpu.itb.stage2_mmu.stage2_tlb.walker.requestOrigin_Requested::total            0                       # Table walker requests started/completed, data/inst
system.cpu.itb.stage2_mmu.stage2_tlb.walker.requestOrigin_Completed::Data            0                       # Table walker requests started/completed, data/inst
system.cpu.itb.stage2_mmu.stage2_tlb.walker.requestOrigin_Completed::Inst            0                       # Table walker requests started/completed, data/inst
system.cpu.itb.stage2_mmu.stage2_tlb.walker.requestOrigin_Completed::total            0                       # Table walker requests started/completed, data/inst
system.cpu.itb.stage2_mmu.stage2_tlb.walker.requestOrigin::total            0                       # Table walker requests started/completed, data/inst
system.cpu.itb.stage2_mmu.stage2_tlb.walker.power_state.pwrStateResidencyTicks::UNDEFINED 334098487600                       # Cumulative time (in ticks) in various power states
system.cpu.itb.walker.walks                         0                       # Table walker walks requested
system.cpu.itb.walker.requestOrigin_Requested::Data            0                       # Table walker requests started/completed, data/inst
system.cpu.itb.walker.requestOrigin_Requested::Inst            0                       # Table walker requests started/completed, data/inst
system.cpu.itb.walker.requestOrigin_Requested::total            0                       # Table walker requests started/completed, data/inst
system.cpu.itb.walker.requestOrigin_Completed::Data            0                       # Table walker requests started/completed, data/inst
system.cpu.itb.walker.requestOrigin_Completed::Inst            0                       # Table walker requests started/completed, data/inst
system.cpu.itb.walker.requestOrigin_Completed::total            0                       # Table walker requests started/completed, data/inst
system.cpu.itb.walker.requestOrigin::total            0                       # Table walker requests started/completed, data/inst
[...]
system.switch_cpus.fetch.predictedBranches      1026132                       # Number of branches that fetch has predicted taken
system.switch_cpus.fetch.cycles               6107995                       # Number of cycles fetch has run and was not squashing or blocked
system.switch_cpus.fetch.squashCycles           34994                       # Number of cycles fetch has spent squashing
system.switch_cpus.fetch.miscStallCycles          750                       # Number of cycles fetch has spent waiting on interrupts,or bad addresses, or out of MSHRs
system.switch_cpus.fetch.pendingTrapStallCycles          154                       # Number of stall cycles due to pending traps
system.switch_cpus.fetch.icacheWaitRetryStallCycles          252                       # Number of stall cycles due to full MSHR
system.switch_cpus.fetch.cacheLines           1324404                       # Number of cache lines fetched
system.switch_cpus.fetch.icacheSquashes            98                       # Number of outstanding Icache misses that were squashed
system.switch_cpus.fetch.nisnDist::samples      6144177                       # Number of instructions fetched each cycle (Total)
system.switch_cpus.fetch.nisnDist::mean      2.012967                       # Number of instructions fetched each cycle (Total)
system.switch_cpus.fetch.nisnDist::stdev     2.876758                       # Number of instructions fetched each cycle (Total)
system.switch_cpus.fetch.nisnDist::underflows            0      0.00%      0.00% # Number of instructions fetched each cycle (Total)
system.switch_cpus.fetch.nisnDist::0          3638327     59.22%     59.22% # Number of instructions fetched each cycle (Total)
system.switch_cpus.fetch.nisnDist::1           280113      4.56%     63.77% # Number of instructions fetched each cycle (Total)
system.switch_cpus.fetch.nisnDist::2           178573      2.91%     66.68% # Number of instructions fetched each cycle (Total)
system.switch_cpus.fetch.nisnDist::3           337382      5.49%     72.17% # Number of instructions fetched each cycle (Total)
system.switch_cpus.fetch.nisnDist::4           456075      7.42%     79.60% # Number of instructions fetched each cycle (Total)
system.switch_cpus.fetch.nisnDist::5           105047      1.71%     81.30% # Number of instructions fetched each cycle (Total)
system.switch_cpus.fetch.nisnDist::6           289236      4.71%     86.01% # Number of instructions fetched each cycle (Total)
system.switch_cpus.fetch.nisnDist::7           241722      3.93%     89.95% # Number of instructions fetched each cycle (Total)
system.switch_cpus.fetch.nisnDist::8           617702     10.05%    100.00% # Number of instructions fetched each cycle (Total)
system.switch_cpus.fetch.nisnDist::overflows            0      0.00%    100.00% # Number of instructions fetched each cycle (Total)
system.switch_cpus.fetch.nisnDist::min_value            0                       # Number of instructions fetched each cycle (Total)
system.switch_cpus.fetch.nisnDist::max_value            8                       # Number of instructions fetched each cycle (Total)
system.switch_cpus.fetch.nisnDist::total      6144177                       # Number of instructions fetched each cycle (Total)
system.switch_cpus.fetch.branchRate          0.272132                       # Number of branch fetches per cycle
system.switch_cpus.fetch.rate                2.008911                       # Number of inst fetches per cycle
system.switch_cpus.itb.instHits                     0                       # ITB inst hits
system.switch_cpus.itb.instMisses                   0                       # ITB inst misses
system.switch_cpus.itb.readHits                     0                       # DTB read hits
system.switch_cpus.itb.readMisses                   0                       # DTB read misses
system.switch_cpus.itb.writeHits                    0                       # DTB write hits
system.switch_cpus.itb.writeMisses                  0                       # DTB write misses
system.switch_cpus.itb.inserts                      0                       # Number of times an entry is inserted into the TLB
system.switch_cpus.itb.flushTlb                     0                       # Number of times complete TLB was flushed
system.switch_cpus.itb.flushTlbMva                  0                       # Number of times TLB was flushed by MVA
system.switch_cpus.itb.flushTlbMvaAsid              0                       # Number of times TLB was flushed by MVA & ASID
system.switch_cpus.itb.flushTlbAsid                 0                       # Number of times TLB was flushed by ASID
system.switch_cpus.itb.flushedEntries               0                       # Number of entries that have been flushed from TLB
system.switch_cpus.itb.alignFaults                  0                       # Number of TLB faults due to alignment restrictions
system.switch_cpus.itb.prefetchFaults               0                       # Number of TLB faults due to prefetch
system.switch_cpus.itb.domainFaults                 0                       # Number of TLB faults due to domain restrictions
system.switch_cpus.itb.permsFaults                  0                       # Number of TLB faults due to permissions restrictions
system.switch_cpus.itb.readAccesses                 0                       # DTB read accesses
system.switch_cpus.itb.writeAccesses                0                       # DTB write accesses
system.switch_cpus.itb.instAccesses                 0                       # ITB inst accesses
system.switch_cpus.itb.hits                         0                       # Total TLB (inst and data) hits
system.switch_cpus.itb.misses                       0                       # Total TLB (inst and data) misses
system.switch_cpus.itb.accesses                     0                       # Total TLB (inst and data) accesses
system.switch_cpus.itb.stage2_mmu.stage2_tlb.instHits            0                       # ITB inst hits
system.switch_cpus.itb.stage2_mmu.stage2_tlb.instMisses            0                       # ITB inst misses
system.switch_cpus.itb.stage2_mmu.stage2_tlb.readHits            0                       # DTB read hits
system.switch_cpus.itb.stage2_mmu.stage2_tlb.readMisses            0                       # DTB read misses
system.switch_cpus.itb.stage2_mmu.stage2_tlb.writeHits            0                       # DTB write hits
system.switch_cpus.itb.stage2_mmu.stage2_tlb.writeMisses            0                       # DTB write misses
system.switch_cpus.itb.stage2_mmu.stage2_tlb.inserts            0                       # Number of times an entry is inserted into the TLB
system.switch_cpus.itb.stage2_mmu.stage2_tlb.flushTlb            0                       # Number of times complete TLB was flushed
system.switch_cpus.itb.stage2_mmu.stage2_tlb.flushTlbMva            0                       # Number of times TLB was flushed by MVA
system.switch_cpus.itb.stage2_mmu.stage2_tlb.flushTlbMvaAsid            0                       # Number of times TLB was flushed by MVA & ASID
system.switch_cpus.itb.stage2_mmu.stage2_tlb.flushTlbAsid            0                       # Number of times TLB was flushed by ASID
system.switch_cpus.itb.stage2_mmu.stage2_tlb.flushedEntries            0                       # Number of entries that have been flushed from TLB
system.switch_cpus.itb.stage2_mmu.stage2_tlb.alignFaults            0                       # Number of TLB faults due to alignment restrictions
system.switch_cpus.itb.stage2_mmu.stage2_tlb.prefetchFaults            0                       # Number of TLB faults due to prefetch
system.switch_cpus.itb.stage2_mmu.stage2_tlb.domainFaults            0                       # Number of TLB faults due to domain restrictions
system.switch_cpus.itb.stage2_mmu.stage2_tlb.permsFaults            0                       # Number of TLB faults due to permissions restrictions
system.switch_cpus.itb.stage2_mmu.stage2_tlb.readAccesses            0                       # DTB read accesses
system.switch_cpus.itb.stage2_mmu.stage2_tlb.writeAccesses            0                       # DTB write accesses
system.switch_cpus.itb.stage2_mmu.stage2_tlb.instAccesses            0                       # ITB inst accesses
system.switch_cpus.itb.stage2_mmu.stage2_tlb.hits            0                       # Total TLB (inst and data) hits
system.switch_cpus.itb.stage2_mmu.stage2_tlb.misses            0                       # Total TLB (inst and data) misses
system.switch_cpus.itb.stage2_mmu.stage2_tlb.accesses            0                       # Total TLB (inst and data) accesses
system.switch_cpus.itb.stage2_mmu.stage2_tlb.walker.walks            0                       # Table walker walks requested
system.switch_cpus.itb.stage2_mmu.stage2_tlb.walker.requestOrigin_Requested::Data            0                       # Table walker requests started/completed, data/inst
system.switch_cpus.itb.stage2_mmu.stage2_tlb.walker.requestOrigin_Requested::Inst            0                       # Table walker requests started/completed, data/inst
system.switch_cpus.itb.stage2_mmu.stage2_tlb.walker.requestOrigin_Requested::total            0                       # Table walker requests started/completed, data/inst
system.switch_cpus.itb.stage2_mmu.stage2_tlb.walker.requestOrigin_Completed::Data            0                       # Table walker requests started/completed, data/inst
system.switch_cpus.itb.stage2_mmu.stage2_tlb.walker.requestOrigin_Completed::Inst            0                       # Table walker requests started/completed, data/inst
system.switch_cpus.itb.stage2_mmu.stage2_tlb.walker.requestOrigin_Completed::total            0                       # Table walker requests started/completed, data/inst
system.switch_cpus.itb.stage2_mmu.stage2_tlb.walker.requestOrigin::total            0                       # Table walker requests started/completed, data/inst
system.switch_cpus.itb.stage2_mmu.stage2_tlb.walker.power_state.pwrStateResidencyTicks::UNDEFINED   2460912800                       # Cumulative time (in ticks) in various power states
system.switch_cpus.itb.walker.walks                 0                       # Table walker walks requested
system.switch_cpus.itb.walker.requestOrigin_Requested::Data            0                       # Table walker requests started/completed, data/inst
system.switch_cpus.itb.walker.requestOrigin_Requested::Inst            0                       # Table walker requests started/completed, data/inst
system.switch_cpus.itb.walker.requestOrigin_Requested::total            0                       # Table walker requests started/completed, data/inst
system.switch_cpus.itb.walker.requestOrigin_Completed::Data            0                       # Table walker requests started/completed, data/inst
system.switch_cpus.itb.walker.requestOrigin_Completed::Inst            0                       # Table walker requests started/completed, data/inst
system.switch_cpus.itb.walker.requestOrigin_Completed::total            0                       # Table walker requests started/completed, data/inst
system.switch_cpus.itb.walker.requestOrigin::total            0                       # Table walker requests started/completed, data/inst
system.switch_cpus.itb.walker.power_state.pwrStateResidencyTicks::UNDEFINED   2460912800                       # Cumulative time (in ticks) in various power states
system.switch_cpus.lsq0.forwLoads             1589675                       # Number of loads that had data forwarded from stores
system.switch_cpus.lsq0.squashedLoads          603196                       # Number of loads squashed
system.switch_cpus.lsq0.ignoredResponses           36                       # Number of memory responses ignored because the instruction is squashed
system.switch_cpus.lsq0.memOrderViolation          479                       # Number of memory ordering violations
system.switch_cpus.lsq0.squashedStores         117753                       # Number of stores squashed
system.switch_cpus.lsq0.rescheduledLoads            2                       # Number of loads that were rescheduled
system.switch_cpus.lsq0.blockedByCache             59                       # Number of times an access to memory failed due to the cache being blocked
system.switch_cpus.power_state.pwrStateResidencyTicks::OFF   2460912800                       # Cumulative time (in ticks) in various power states
system.switch_cpus.rename.squashCycles          17437                       # Number of cycles rename is squashing
system.switch_cpus.rename.idleCycles           941246                       # Number of cycles rename is idle
system.switch_cpus.rename.blockCycles         2423893                       # Number of cycles rename is blocking
system.switch_cpus.rename.serializeStallCycles         2968                       # count of cycles rename stalledfor serializing inst
system.switch_cpus.rename.runCycles           1094777                       # Number of cycles rename is running
system.switch_cpus.rename.unblockCycles       1663856                       # Number of cycles rename is unblocking
system.switch_cpus.rename.renamedInsts       11465878                       # Number of instructions processed by rename
system.switch_cpus.rename.squashedInsts         44122                       # Number of squashed instructions processed by rename
system.switch_cpus.rename.ROBFullEvents           805                       # Number of times rename has blocked due to ROB full
system.switch_cpus.rename.IQFullEvents         823846                       # Number of times rename has blocked due to IQ full
system.switch_cpus.rename.SQFullEvents            714                       # Number of times rename has blocked due to SQ full
system.switch_cpus.rename.fullRegistersEvents       846022                       # Number of times there has been no free registers
system.switch_cpus.rename.renamedOperands     13749895                       # Number of destination operands rename has renamed
system.switch_cpus.rename.lookups            16768791                       # Number of register rename lookups that rename has made
system.switch_cpus.rename.intLookups         12157366                       # Number of integer rename lookups
system.switch_cpus.rename.vecLookups               35                       # Number of vector rename lookups
system.switch_cpus.rename.committedMaps      12073356                       # Number of HB maps that are committed
system.switch_cpus.rename.undoneMaps          1676514                       # Number of HB maps that are undone due to squashing
system.switch_cpus.rename.serializing             318                       # count of serializing insts renamed
system.switch_cpus.rename.tempSerializing            7                       # count of temporary serializing insts renamed
system.switch_cpus.rename.skidInsts           4314842                       # count of insts added to the skid buffer
system.switch_cpus.rob.reads                 15052508                       # The number of ROB reads
system.switch_cpus.rob.writes                23124621                       # The number of ROB writes
system.switch_cpus.thread_0.numInsts          9999998                       # Number of Instructions committed
system.switch_cpus.thread_0.numOps           10000164                       # Number of Ops committed
system.switch_cpus.thread_0.numMemRefs              0                       # Number of Memory References
system.tol2bus.trans_dist::ReadResp            178508                       # Transaction distribution
system.tol2bus.trans_dist::WritebackDirty       106548                       # Transaction distribution
system.tol2bus.trans_dist::WritebackClean        77705                       # Transaction distribution
system.tol2bus.trans_dist::CleanEvict           11114                       # Transaction distribution
system.tol2bus.trans_dist::HardPFReq            10820                       # Transaction distribution
system.tol2bus.trans_dist::ReadExReq             4698                       # Transaction distribution
system.tol2bus.trans_dist::ReadExResp            4698                       # Transaction distribution
system.tol2bus.trans_dist::ReadCleanReq            95                       # Transaction distribution
system.tol2bus.trans_dist::ReadSharedReq       178414                       # Transaction distribution
system.tol2bus.pkt_count_system.cpu.icache.mem_side_port::system.l2.cpu_side_port          190                       # Packet count per connected requestor and responder (bytes)
system.tol2bus.pkt_count_system.cpu.dcache.mem_side_port::system.l2.cpu_side_port       549334                       # Packet count per connected requestor and responder (bytes)
system.tol2bus.pkt_count::total                549524                       # Packet count per connected requestor and responder (bytes)
system.tol2bus.pkt_size_system.cpu.icache.mem_side_port::system.l2.cpu_side_port        12160                       # Cumulative packet size per connected requestor and responder (bytes)
system.tol2bus.pkt_size_system.cpu.dcache.mem_side_port::system.l2.cpu_side_port     46876416                       # Cumulative packet size per connected requestor and responder (bytes)
system.tol2bus.pkt_size::total               46888576                       # Cumulative packet size per connected requestor and responder (bytes)
system.tol2bus.snoops                           23076                       # Total snoops (count)
system.tol2bus.snoopTraffic                    146176                       # Total snoop traffic (bytes)
system.tol2bus.snoop_fanout::samples           206283                       # Request fanout histogram
system.tol2bus.snoop_fanout::mean            0.002550                       # Request fanout histogram
system.tol2bus.snoop_fanout::stdev           0.050432                       # Request fanout histogram
system.tol2bus.snoop_fanout::underflows             0      0.00%      0.00% # Request fanout histogram
system.tol2bus.snoop_fanout::0                 205757     99.75%     99.75% # Request fanout histogram
system.tol2bus.snoop_fanout::1                    526      0.25%    100.00% # Request fanout histogram
system.tol2bus.snoop_fanout::2                      0      0.00%    100.00% # Request fanout histogram
system.tol2bus.snoop_fanout::3                      0      0.00%    100.00% # Request fanout histogram
system.tol2bus.snoop_fanout::4                      0      0.00%    100.00% # Request fanout histogram
system.tol2bus.snoop_fanout::overflows              0      0.00%    100.00% # Request fanout histogram
system.tol2bus.snoop_fanout::min_value              0                       # Request fanout histogram
system.tol2bus.snoop_fanout::max_value              1                       # Request fanout histogram
system.tol2bus.snoop_fanout::total             206283                       # Request fanout histogram
system.tol2bus.power_state.pwrStateResidencyTicks::UNDEFINED   2460912800                       # Cumulative time (in ticks) in various power states
system.tol2bus.reqLayer0.occupancy          439504800                       # Layer occupancy (ticks)
system.tol2bus.reqLayer0.utilization             17.9                       # Layer utilization (%)
system.tol2bus.respLayer0.occupancy            190000                       # Layer occupancy (ticks)
system.tol2bus.respLayer0.utilization             0.0                       # Layer utilization (%)
system.tol2bus.respLayer1.occupancy         366222000                       # Layer occupancy (ticks)
system.tol2bus.respLayer1.utilization            14.9                       # Layer utilization (%)
system.voltage_domain.voltage                       1                       # Voltage in Volts

---------- End Simulation Statistics   ----------
