
---------- Begin Simulation Statistics ----------
final_tick                               318090887200                       # Number of ticks from beginning of simulation (restored from checkpoints and never reset)
host_inst_rate                                 339778                       # Simulator instruction rate (inst/s)
host_mem_usage                               16975248                       # Number of bytes of host memory used
host_op_rate                                   339836                       # Simulator op (including micro ops) rate (op/s)
host_seconds                                     2.94                       # Real time elapsed on the host
host_tick_rate                              105041052                       # Simulator tick rate (ticks/s)
sim_freq                                 1000000000000                       # Frequency of simulated ticks
sim_insts                                     1000027                       # Number of instructions simulated
sim_ops                                       1000217                       # Number of ops (including micro ops) simulated
sim_seconds                                  0.000309                       # Number of seconds simulated
sim_ticks                                   309161200                       # Number of ticks simulated
system.cpu.Branches                                 5                       # Number of branches fetched
system.cpu.committedInsts                          25                       # Number of instructions committed
system.cpu.committedOps                            25                       # Number of ops (including micro ops) committed
system.cpu.idle_fraction                            0                       # Percentage of idle cycles
system.cpu.not_idle_fraction                        1                       # Percentage of non-idle cycles
system.cpu.numCycles                               25                       # number of cpu cycles simulated
system.cpu.numWorkItemsCompleted                    0                       # number of work items this cpu completed
system.cpu.numWorkItemsStarted                      0                       # number of work items this cpu started
system.cpu.num_busy_cycles                         25                       # Number of busy cycles
system.cpu.num_cc_register_reads                   15                       # number of times the CC registers were read
system.cpu.num_cc_register_writes                  12                       # number of times the CC registers were written
system.cpu.num_conditional_control_insts            5                       # number of instructions that are conditional controls
system.cpu.num_fp_alu_accesses                      0                       # Number of float alu accesses
system.cpu.num_fp_insts                             0                       # number of float instructions
system.cpu.num_fp_register_reads                    0                       # number of times the floating registers were read
system.cpu.num_fp_register_writes                   0                       # number of times the floating registers were written
system.cpu.num_func_calls                           0                       # number of times a function call or return occured
system.cpu.num_idle_cycles                          0                       # Number of idle cycles
system.cpu.num_int_alu_accesses                    20                       # Number of integer alu accesses
system.cpu.num_int_insts                           20                       # number of integer instructions
system.cpu.num_int_register_reads                  23                       # number of times the integer registers were read
system.cpu.num_int_register_writes                 19                       # number of times the integer registers were written
system.cpu.num_load_insts                          10                       # Number of load instructions
system.cpu.num_mem_refs                            11                       # number of memory refs
system.cpu.num_store_insts                          1                       # Number of store instructions
system.cpu.num_vec_alu_accesses                     0                       # Number of vector alu accesses
system.cpu.num_vec_insts                            0                       # number of vector instructions
system.cpu.num_vec_register_reads                   0                       # number of times the vector registers were read
system.cpu.num_vec_register_writes                  0                       # number of times the vector registers were written
system.cpu.op_class::No_OpClass                     0      0.00%      0.00% # Class of executed instruction
system.cpu.op_class::IntAlu                        14     56.00%     56.00% # Class of executed instruction
system.cpu.op_class::IntMult                        0      0.00%     56.00% # Class of executed instruction
system.cpu.op_class::IntDiv                         0      0.00%     56.00% # Class of executed instruction
system.cpu.op_class::FloatAdd                       0      0.00%     56.00% # Class of executed instruction
system.cpu.op_class::FloatCmp                       0      0.00%     56.00% # Class of executed instruction
system.cpu.op_class::FloatCvt                       0      0.00%     56.00% # Class of executed instruction
system.cpu.op_class::FloatMult                      0      0.00%     56.00% # Class of executed instruction
system.cpu.op_class::FloatMultAcc                   0      0.00%     56.00% # Class of executed instruction
system.cpu.op_class::FloatDiv                       0      0.00%     56.00% # Class of executed instruction
system.cpu.op_class::FloatMisc                      0      0.00%     56.00% # Class of executed instruction
system.cpu.op_class::FloatSqrt                      0      0.00%     56.00% # Class of executed instruction
system.cpu.op_class::SimdAdd                        0      0.00%     56.00% # Class of executed instruction
system.cpu.op_class::SimdAddAcc                     0      0.00%     56.00% # Class of executed instruction
system.cpu.op_class::SimdAlu                        0      0.00%     56.00% # Class of executed instruction
system.cpu.op_class::SimdCmp                        0      0.00%     56.00% # Class of executed instruction
system.cpu.op_class::SimdCvt                        0      0.00%     56.00% # Class of executed instruction
system.cpu.op_class::SimdMisc                       0      0.00%     56.00% # Class of executed instruction
system.cpu.op_class::SimdMult                       0      0.00%     56.00% # Class of executed instruction
system.cpu.op_class::SimdMultAcc                    0      0.00%     56.00% # Class of executed instruction
system.cpu.op_class::SimdShift                      0      0.00%     56.00% # Class of executed instruction
system.cpu.op_class::SimdShiftAcc                   0      0.00%     56.00% # Class of executed instruction
system.cpu.op_class::SimdDiv                        0      0.00%     56.00% # Class of executed instruction
system.cpu.op_class::SimdSqrt                       0      0.00%     56.00% # Class of executed instruction
system.cpu.op_class::SimdFloatAdd                   0      0.00%     56.00% # Class of executed instruction
system.cpu.op_class::SimdFloatAlu                   0      0.00%     56.00% # Class of executed instruction
system.cpu.op_class::SimdFloatCmp                   0      0.00%     56.00% # Class of executed instruction
system.cpu.op_class::SimdFloatCvt                   0      0.00%     56.00% # Class of executed instruction
system.cpu.op_class::SimdFloatDiv                   0      0.00%     56.00% # Class of executed instruction
system.cpu.op_class::SimdFloatMisc                  0      0.00%     56.00% # Class of executed instruction
system.cpu.op_class::SimdFloatMult                  0      0.00%     56.00% # Class of executed instruction
system.cpu.op_class::SimdFloatMultAcc               0      0.00%     56.00% # Class of executed instruction
system.cpu.op_class::SimdFloatSqrt                  0      0.00%     56.00% # Class of executed instruction
system.cpu.op_class::SimdReduceAdd                  0      0.00%     56.00% # Class of executed instruction
system.cpu.op_class::SimdReduceAlu                  0      0.00%     56.00% # Class of executed instruction
system.cpu.op_class::SimdReduceCmp                  0      0.00%     56.00% # Class of executed instruction
system.cpu.op_class::SimdFloatReduceAdd             0      0.00%     56.00% # Class of executed instruction
system.cpu.op_class::SimdFloatReduceCmp             0      0.00%     56.00% # Class of executed instruction
system.cpu.op_class::SimdAes                        0      0.00%     56.00% # Class of executed instruction
system.cpu.op_class::SimdAesMix                     0      0.00%     56.00% # Class of executed instruction
system.cpu.op_class::SimdSha1Hash                   0      0.00%     56.00% # Class of executed instruction
system.cpu.op_class::SimdSha1Hash2                  0      0.00%     56.00% # Class of executed instruction
system.cpu.op_class::SimdSha256Hash                 0      0.00%     56.00% # Class of executed instruction
system.cpu.op_class::SimdSha256Hash2                0      0.00%     56.00% # Class of executed instruction
system.cpu.op_class::SimdShaSigma2                  0      0.00%     56.00% # Class of executed instruction
system.cpu.op_class::SimdShaSigma3                  0      0.00%     56.00% # Class of executed instruction
system.cpu.op_class::SimdPredAlu                    0      0.00%     56.00% # Class of executed instruction
system.cpu.op_class::MemRead                       10     40.00%     96.00% # Class of executed instruction
system.cpu.op_class::MemWrite                       1      4.00%    100.00% # Class of executed instruction
system.cpu.op_class::FloatMemRead                   0      0.00%    100.00% # Class of executed instruction
system.cpu.op_class::FloatMemWrite                  0      0.00%    100.00% # Class of executed instruction
system.cpu.op_class::IprAccess                      0      0.00%    100.00% # Class of executed instruction
system.cpu.op_class::InstPrefetch                   0      0.00%    100.00% # Class of executed instruction
system.cpu.op_class::total                         25                       # Class of executed instruction
system.cpu.workload.numSyscalls                     2                       # Number of system calls
system.membus.snoop_filter.hit_multi_requests            0                       # Number of requests hitting in the snoop filter with multiple (>1) holders of the requested data.
system.membus.snoop_filter.hit_multi_snoops            0                       # Number of snoops hitting in the snoop filter with multiple (>1) holders of the requested data.
system.membus.snoop_filter.hit_single_requests          936                       # Number of requests hitting in the snoop filter with a single holder of the requested data.
system.membus.snoop_filter.hit_single_snoops            0                       # Number of snoops hitting in the snoop filter with a single holder of the requested data.
system.membus.snoop_filter.tot_requests          3646                       # Total number of requests made to the snoop filter.
system.membus.snoop_filter.tot_snoops               0                       # Total number of snoops made to the snoop filter.
system.switch_cpus.cc_regfile_reads            507381                       # number of cc regfile reads
system.switch_cpus.cc_regfile_writes           510432                       # number of cc regfile writes
system.switch_cpus.committedInsts             1000002                       # Number of Instructions Simulated
system.switch_cpus.committedOps               1000192                       # Number of Ops (including micro ops) Simulated
system.switch_cpus.cpi                       0.772876                       # CPI: Cycles Per Instruction
system.switch_cpus.cpi_total                 0.772876                       # CPI: Total CPI of All Threads
system.switch_cpus.idleCycles                    7426                       # Total number of cycles that the CPU has spent unscheduled due to idling
system.switch_cpus.iew.branchMispredicts         4220                       # Number of branch mispredicts detected at execute
system.switch_cpus.iew.exec_branches           169673                       # Number of branches executed
system.switch_cpus.iew.exec_nop                   126                       # number of nop insts executed
system.switch_cpus.iew.exec_rate             1.401101                       # Inst execution rate
system.switch_cpus.iew.exec_refs               529124                       # number of memory reference insts executed
system.switch_cpus.iew.exec_stores              52523                       # Number of stores executed
system.switch_cpus.iew.exec_swp                     0                       # number of swp insts executed
system.switch_cpus.iew.iewBlockCycles           81887                       # Number of cycles IEW is blocking
system.switch_cpus.iew.iewDispLoadInsts        556395                       # Number of dispatched load instructions
system.switch_cpus.iew.iewDispNonSpecInsts           24                       # Number of dispatched non-speculative instructions
system.switch_cpus.iew.iewDispSquashedInsts            0                       # Number of squashed instructions skipped by dispatch
system.switch_cpus.iew.iewDispStoreInsts        64451                       # Number of dispatched store instructions
system.switch_cpus.iew.iewDispatchedInsts      1284165                       # Number of instructions dispatched to IQ
system.switch_cpus.iew.iewExecLoadInsts        476601                       # Number of load instructions executed
system.switch_cpus.iew.iewExecSquashedInsts         7511                       # Number of squashed instructions skipped in execute
system.switch_cpus.iew.iewExecutedInsts       1082880                       # Number of executed instructions
system.switch_cpus.iew.iewIQFullEvents             30                       # Number of times the IQ has become full, causing a stall
system.switch_cpus.iew.iewIdleCycles                0                       # Number of cycles IEW is idle
system.switch_cpus.iew.iewLSQFullEvents             0                       # Number of times the LSQ has become full, causing a stall
system.switch_cpus.iew.iewSquashCycles           3873                       # Number of cycles IEW is squashing
system.switch_cpus.iew.iewUnblockCycles            68                       # Number of cycles IEW is unblocking
system.switch_cpus.iew.memOrderViolationEvents           62                       # Number of memory order violations
system.switch_cpus.iew.predictedNotTakenIncorrect         2175                       # Number of branches that were predicted not taken incorrectly
system.switch_cpus.iew.predictedTakenIncorrect         2045                       # Number of branches that were predicted taken incorrectly
system.switch_cpus.iew.wb_consumers           1185496                       # num instructions consuming a value
system.switch_cpus.iew.wb_count               1073247                       # cumulative count of insts written-back
system.switch_cpus.iew.wb_fanout             0.714233                       # average fanout of values written-back
system.switch_cpus.iew.wb_producers            846720                       # num instructions producing a value
system.switch_cpus.iew.wb_rate               1.388637                       # insts written-back per cycle
system.switch_cpus.iew.wb_sent                1076541                       # cumulative count of insts sent to commit
system.switch_cpus.int_regfile_reads          1117346                       # number of integer regfile reads
system.switch_cpus.int_regfile_writes          854647                       # number of integer regfile writes
system.switch_cpus.ipc                       1.293868                       # IPC: Instructions Per Cycle
system.switch_cpus.ipc_total                 1.293868                       # IPC: Total IPC of All Threads
system.switch_cpus.iq.FU_type_0::No_OpClass            2      0.00%      0.00% # Type of FU issued
system.switch_cpus.iq.FU_type_0::IntAlu        553916     50.80%     50.80% # Type of FU issued
system.switch_cpus.iq.FU_type_0::IntMult            0      0.00%     50.80% # Type of FU issued
system.switch_cpus.iq.FU_type_0::IntDiv             0      0.00%     50.80% # Type of FU issued
system.switch_cpus.iq.FU_type_0::FloatAdd            0      0.00%     50.80% # Type of FU issued
system.switch_cpus.iq.FU_type_0::FloatCmp            0      0.00%     50.80% # Type of FU issued
system.switch_cpus.iq.FU_type_0::FloatCvt            0      0.00%     50.80% # Type of FU issued
system.switch_cpus.iq.FU_type_0::FloatMult            0      0.00%     50.80% # Type of FU issued
system.switch_cpus.iq.FU_type_0::FloatMultAcc            0      0.00%     50.80% # Type of FU issued
system.switch_cpus.iq.FU_type_0::FloatDiv            0      0.00%     50.80% # Type of FU issued
system.switch_cpus.iq.FU_type_0::FloatMisc            0      0.00%     50.80% # Type of FU issued
system.switch_cpus.iq.FU_type_0::FloatSqrt            0      0.00%     50.80% # Type of FU issued
system.switch_cpus.iq.FU_type_0::SimdAdd            0      0.00%     50.80% # Type of FU issued
system.switch_cpus.iq.FU_type_0::SimdAddAcc            0      0.00%     50.80% # Type of FU issued
system.switch_cpus.iq.FU_type_0::SimdAlu            0      0.00%     50.80% # Type of FU issued
system.switch_cpus.iq.FU_type_0::SimdCmp            0      0.00%     50.80% # Type of FU issued
system.switch_cpus.iq.FU_type_0::SimdCvt            0      0.00%     50.80% # Type of FU issued
system.switch_cpus.iq.FU_type_0::SimdMisc            0      0.00%     50.80% # Type of FU issued
system.switch_cpus.iq.FU_type_0::SimdMult            0      0.00%     50.80% # Type of FU issued
system.switch_cpus.iq.FU_type_0::SimdMultAcc            0      0.00%     50.80% # Type of FU issued
system.switch_cpus.iq.FU_type_0::SimdShift            0      0.00%     50.80% # Type of FU issued
system.switch_cpus.iq.FU_type_0::SimdShiftAcc            0      0.00%     50.80% # Type of FU issued
system.switch_cpus.iq.FU_type_0::SimdDiv            0      0.00%     50.80% # Type of FU issued
system.switch_cpus.iq.FU_type_0::SimdSqrt            0      0.00%     50.80% # Type of FU issued
system.switch_cpus.iq.FU_type_0::SimdFloatAdd            0      0.00%     50.80% # Type of FU issued
system.switch_cpus.iq.FU_type_0::SimdFloatAlu            0      0.00%     50.80% # Type of FU issued
system.switch_cpus.iq.FU_type_0::SimdFloatCmp            0      0.00%     50.80% # Type of FU issued
system.switch_cpus.iq.FU_type_0::SimdFloatCvt            0      0.00%     50.80% # Type of FU issued
system.switch_cpus.iq.FU_type_0::SimdFloatDiv            0      0.00%     50.80% # Type of FU issued
system.switch_cpus.iq.FU_type_0::SimdFloatMisc            0      0.00%     50.80% # Type of FU issued
system.switch_cpus.iq.FU_type_0::SimdFloatMult            0      0.00%     50.80% # Type of FU issued
system.switch_cpus.iq.FU_type_0::SimdFloatMultAcc            0      0.00%     50.80% # Type of FU issued
system.switch_cpus.iq.FU_type_0::SimdFloatSqrt            0      0.00%     50.80% # Type of FU issued
system.switch_cpus.iq.FU_type_0::SimdReduceAdd            0      0.00%     50.80% # Type of FU issued
system.switch_cpus.iq.FU_type_0::SimdReduceAlu            0      0.00%     50.80% # Type of FU issued
system.switch_cpus.iq.FU_type_0::SimdReduceCmp            0      0.00%     50.80% # Type of FU issued
system.switch_cpus.iq.FU_type_0::SimdFloatReduceAdd            0      0.00%     50.80% # Type of FU issued
system.switch_cpus.iq.FU_type_0::SimdFloatReduceCmp            0      0.00%     50.80% # Type of FU issued
system.switch_cpus.iq.FU_type_0::SimdAes            0      0.00%     50.80% # Type of FU issued
system.switch_cpus.iq.FU_type_0::SimdAesMix            0      0.00%     50.80% # Type of FU issued
system.switch_cpus.iq.FU_type_0::SimdSha1Hash            0      0.00%     50.80% # Type of FU issued
system.switch_cpus.iq.FU_type_0::SimdSha1Hash2            0      0.00%     50.80% # Type of FU issued
system.switch_cpus.iq.FU_type_0::SimdSha256Hash            0      0.00%     50.80% # Type of FU issued
system.switch_cpus.iq.FU_type_0::SimdSha256Hash2            0      0.00%     50.80% # Type of FU issued
system.switch_cpus.iq.FU_type_0::SimdShaSigma2            0      0.00%     50.80% # Type of FU issued
system.switch_cpus.iq.FU_type_0::SimdShaSigma3            0      0.00%     50.80% # Type of FU issued
system.switch_cpus.iq.FU_type_0::SimdPredAlu            0      0.00%     50.80% # Type of FU issued
system.switch_cpus.iq.FU_type_0::MemRead       482661     44.26%     95.06% # Type of FU issued
system.switch_cpus.iq.FU_type_0::MemWrite        53815      4.94%    100.00% # Type of FU issued
system.switch_cpus.iq.FU_type_0::FloatMemRead            0      0.00%    100.00% # Type of FU issued
system.switch_cpus.iq.FU_type_0::FloatMemWrite            0      0.00%    100.00% # Type of FU issued
system.switch_cpus.iq.FU_type_0::IprAccess            0      0.00%    100.00% # Type of FU issued
system.switch_cpus.iq.FU_type_0::InstPrefetch            0      0.00%    100.00% # Type of FU issued
system.switch_cpus.iq.FU_type_0::total        1090394                       # Type of FU issued
system.switch_cpus.iq.fp_alu_accesses               0                       # Number of floating point alu accesses
system.switch_cpus.iq.fp_inst_queue_reads            0                       # Number of floating instruction queue reads
system.switch_cpus.iq.fp_inst_queue_wakeup_accesses            0                       # Number of floating instruction queue wakeup accesses
system.switch_cpus.iq.fp_inst_queue_writes            0                       # Number of floating instruction queue writes
system.switch_cpus.iq.fu_busy_cnt              509710                       # FU busy when requested
system.switch_cpus.iq.fu_busy_rate           0.467455                       # FU busy rate (busy events/executed inst)
system.switch_cpus.iq.fu_full::No_OpClass            0      0.00%      0.00% # attempts to use FU when none available
system.switch_cpus.iq.fu_full::IntAlu           45360      8.90%      8.90% # attempts to use FU when none available
system.switch_cpus.iq.fu_full::IntMult              0      0.00%      8.90% # attempts to use FU when none available
system.switch_cpus.iq.fu_full::IntDiv               0      0.00%      8.90% # attempts to use FU when none available
system.switch_cpus.iq.fu_full::FloatAdd             0      0.00%      8.90% # attempts to use FU when none available
system.switch_cpus.iq.fu_full::FloatCmp             0      0.00%      8.90% # attempts to use FU when none available
system.switch_cpus.iq.fu_full::FloatCvt             0      0.00%      8.90% # attempts to use FU when none available
system.switch_cpus.iq.fu_full::FloatMult            0      0.00%      8.90% # attempts to use FU when none available
system.switch_cpus.iq.fu_full::FloatMultAcc            0      0.00%      8.90% # attempts to use FU when none available
system.switch_cpus.iq.fu_full::FloatDiv             0      0.00%      8.90% # attempts to use FU when none available
system.switch_cpus.iq.fu_full::FloatMisc            0      0.00%      8.90% # attempts to use FU when none available
system.switch_cpus.iq.fu_full::FloatSqrt            0      0.00%      8.90% # attempts to use FU when none available
system.switch_cpus.iq.fu_full::SimdAdd              0      0.00%      8.90% # attempts to use FU when none available
system.switch_cpus.iq.fu_full::SimdAddAcc            0      0.00%      8.90% # attempts to use FU when none available
system.switch_cpus.iq.fu_full::SimdAlu              0      0.00%      8.90% # attempts to use FU when none available
system.switch_cpus.iq.fu_full::SimdCmp              0      0.00%      8.90% # attempts to use FU when none available
system.switch_cpus.iq.fu_full::SimdCvt              0      0.00%      8.90% # attempts to use FU when none available
system.switch_cpus.iq.fu_full::SimdMisc             0      0.00%      8.90% # attempts to use FU when none available
system.switch_cpus.iq.fu_full::SimdMult             0      0.00%      8.90% # attempts to use FU when none available
system.switch_cpus.iq.fu_full::SimdMultAcc            0      0.00%      8.90% # attempts to use FU when none available
system.switch_cpus.iq.fu_full::SimdShift            0      0.00%      8.90% # attempts to use FU when none available
system.switch_cpus.iq.fu_full::SimdShiftAcc            0      0.00%      8.90% # attempts to use FU when none available
system.switch_cpus.iq.fu_full::SimdDiv              0      0.00%      8.90% # attempts to use FU when none available
system.switch_cpus.iq.fu_full::SimdSqrt             0      0.00%      8.90% # attempts to use FU when none available
system.switch_cpus.iq.fu_full::SimdFloatAdd            0      0.00%      8.90% # attempts to use FU when none available
system.switch_cpus.iq.fu_full::SimdFloatAlu            0      0.00%      8.90% # attempts to use FU when none available
system.switch_cpus.iq.fu_full::SimdFloatCmp            0      0.00%      8.90% # attempts to use FU when none available
system.switch_cpus.iq.fu_full::SimdFloatCvt            0      0.00%      8.90% # attempts to use FU when none available
system.switch_cpus.iq.fu_full::SimdFloatDiv            0      0.00%      8.90% # attempts to use FU when none available
system.switch_cpus.iq.fu_full::SimdFloatMisc            0      0.00%      8.90% # attempts to use FU when none available
system.switch_cpus.iq.fu_full::SimdFloatMult            0      0.00%      8.90% # attempts to use FU when none available
system.switch_cpus.iq.fu_full::SimdFloatMultAcc            0      0.00%      8.90% # attempts to use FU when none available
system.switch_cpus.iq.fu_full::SimdFloatSqrt            0      0.00%      8.90% # attempts to use FU when none available
system.switch_cpus.iq.fu_full::SimdReduceAdd            0      0.00%      8.90% # attempts to use FU when none available
system.switch_cpus.iq.fu_full::SimdReduceAlu            0      0.00%      8.90% # attempts to use FU when none available
system.switch_cpus.iq.fu_full::SimdReduceCmp            0      0.00%      8.90% # attempts to use FU when none available
system.switch_cpus.iq.fu_full::SimdFloatReduceAdd            0      0.00%      8.90% # attempts to use FU when none available
system.switch_cpus.iq.fu_full::SimdFloatReduceCmp            0      0.00%      8.90% # attempts to use FU when none available
system.switch_cpus.iq.fu_full::SimdAes              0      0.00%      8.90% # attempts to use FU when none available
system.switch_cpus.iq.fu_full::SimdAesMix            0      0.00%      8.90% # attempts to use FU when none available
system.switch_cpus.iq.fu_full::SimdSha1Hash            0      0.00%      8.90% # attempts to use FU when none available
system.switch_cpus.iq.fu_full::SimdSha1Hash2            0      0.00%      8.90% # attempts to use FU when none available
system.switch_cpus.iq.fu_full::SimdSha256Hash            0      0.00%      8.90% # attempts to use FU when none available
system.switch_cpus.iq.fu_full::SimdSha256Hash2            0      0.00%      8.90% # attempts to use FU when none available
system.switch_cpus.iq.fu_full::SimdShaSigma2            0      0.00%      8.90% # attempts to use FU when none available
system.switch_cpus.iq.fu_full::SimdShaSigma3            0      0.00%      8.90% # attempts to use FU when none available
system.switch_cpus.iq.fu_full::SimdPredAlu            0      0.00%      8.90% # attempts to use FU when none available
system.switch_cpus.iq.fu_full::MemRead         462292     90.70%     99.60% # attempts to use FU when none available
system.switch_cpus.iq.fu_full::MemWrite          2058      0.40%    100.00% # attempts to use FU when none available
system.switch_cpus.iq.fu_full::FloatMemRead            0      0.00%    100.00% # attempts to use FU when none available
system.switch_cpus.iq.fu_full::FloatMemWrite            0      0.00%    100.00% # attempts to use FU when none available
system.switch_cpus.iq.fu_full::IprAccess            0      0.00%    100.00% # attempts to use FU when none available
system.switch_cpus.iq.fu_full::InstPrefetch            0      0.00%    100.00% # attempts to use FU when none available
system.switch_cpus.iq.int_alu_accesses        1600100                       # Number of integer alu accesses
system.switch_cpus.iq.int_inst_queue_reads      3483353                       # Number of integer instruction queue reads
system.switch_cpus.iq.int_inst_queue_wakeup_accesses      1073247                       # Number of integer instruction queue wakeup accesses
system.switch_cpus.iq.int_inst_queue_writes      1567755                       # Number of integer instruction queue writes
system.switch_cpus.iq.iqInstsAdded            1284015                       # Number of instructions added to the IQ (excludes non-spec)
system.switch_cpus.iq.iqInstsIssued           1090394                       # Number of instructions issued
system.switch_cpus.iq.iqNonSpecInstsAdded           24                       # Number of non-speculative instructions added to the IQ
system.switch_cpus.iq.iqSquashedInstsExamined       283737                       # Number of squashed instructions iterated over during squash; mainly for profiling
system.switch_cpus.iq.iqSquashedInstsIssued        27420                       # Number of squashed instructions issued
system.switch_cpus.iq.iqSquashedNonSpecRemoved           22                       # Number of squashed non-spec instructions that were removed
system.switch_cpus.iq.iqSquashedOperandsExamined       329449                       # Number of squashed operands that are examined and possibly removed from graph
system.switch_cpus.iq.issued_per_cycle::samples       765452                       # Number of insts issued each cycle
system.switch_cpus.iq.issued_per_cycle::mean     1.424510                       # Number of insts issued each cycle
system.switch_cpus.iq.issued_per_cycle::stdev     1.206265                       # Number of insts issued each cycle
system.switch_cpus.iq.issued_per_cycle::underflows            0      0.00%      0.00% # Number of insts issued each cycle
system.switch_cpus.iq.issued_per_cycle::0       256038     33.45%     33.45% # Number of insts issued each cycle
system.switch_cpus.iq.issued_per_cycle::1       130656     17.07%     50.52% # Number of insts issued each cycle
system.switch_cpus.iq.issued_per_cycle::2       181670     23.73%     74.25% # Number of insts issued each cycle
system.switch_cpus.iq.issued_per_cycle::3       191954     25.08%     99.33% # Number of insts issued each cycle
system.switch_cpus.iq.issued_per_cycle::4         5134      0.67%    100.00% # Number of insts issued each cycle
system.switch_cpus.iq.issued_per_cycle::5            0      0.00%    100.00% # Number of insts issued each cycle
system.switch_cpus.iq.issued_per_cycle::6            0      0.00%    100.00% # Number of insts issued each cycle
system.switch_cpus.iq.issued_per_cycle::7            0      0.00%    100.00% # Number of insts issued each cycle
system.switch_cpus.iq.issued_per_cycle::8            0      0.00%    100.00% # Number of insts issued each cycle
system.switch_cpus.iq.issued_per_cycle::overflows            0      0.00%    100.00% # Number of insts issued each cycle
system.switch_cpus.iq.issued_per_cycle::min_value            0                       # Number of insts issued each cycle
system.switch_cpus.iq.issued_per_cycle::max_value            4                       # Number of insts issued each cycle
system.switch_cpus.iq.issued_per_cycle::total       765452                       # Number of insts issued each cycle
system.switch_cpus.iq.rate                   1.410823                       # Inst issue rate
system.switch_cpus.iq.vec_alu_accesses              2                       # Number of vector alu accesses
system.switch_cpus.iq.vec_inst_queue_reads           14                       # Number of vector instruction queue reads
system.switch_cpus.iq.vec_inst_queue_wakeup_accesses            0                       # Number of vector instruction queue wakeup accesses
system.switch_cpus.iq.vec_inst_queue_writes           76                       # Number of vector instruction queue writes
system.switch_cpus.memDep0.conflictingLoads       227513                       # Number of conflicting loads.
system.switch_cpus.memDep0.conflictingStores        22624                       # Number of conflicting stores.
system.switch_cpus.memDep0.insertedLoads       556395                       # Number of loads inserted to the mem dependence unit.
system.switch_cpus.memDep0.insertedStores        64451                       # Number of stores inserted to the mem dependence unit.
system.switch_cpus.misc_regfile_reads         2389108                       # number of misc regfile reads
system.switch_cpus.misc_regfile_writes              1                       # number of misc regfile writes
system.switch_cpus.numCycles                   772878                       # number of cpu cycles simulated
system.switch_cpus.numWorkItemsCompleted            0                       # number of work items this cpu completed
system.switch_cpus.numWorkItemsStarted              0                       # number of work items this cpu started
system.switch_cpus.timesIdled                      66                       # Number of times that the entire CPU went into an idle state and unscheduled itself
system.switch_cpus.vec_regfile_writes              44                       # number of vector regfile writes
system.tol2bus.snoop_filter.hit_multi_requests            0                       # Number of requests hitting in the snoop filter with multiple (>1) holders of the requested data.
system.tol2bus.snoop_filter.hit_multi_snoops            0                       # Number of snoops hitting in the snoop filter with multiple (>1) holders of the requested data.
system.tol2bus.snoop_filter.hit_single_requests        23301                       # Number of requests hitting in the snoop filter with a single holder of the requested data.
system.tol2bus.snoop_filter.hit_single_snoops           11                       # Number of snoops hitting in the snoop filter with a single holder of the requested data.
system.tol2bus.snoop_filter.tot_requests        46807                       # Total number of requests made to the snoop filter.
system.tol2bus.snoop_filter.tot_snoops             11                       # Total number of snoops made to the snoop filter.
system.clk_domain.clock                          1000                       # Clock period in ticks
system.cpu.dcache.demand_hits::.cpu.data            5                       # number of demand (read+write) hits
system.cpu.dcache.demand_hits::.switch_cpus.data       303033                       # number of demand (read+write) hits
system.cpu.dcache.demand_hits::total           303038                       # number of demand (read+write) hits
system.cpu.dcache.overall_hits::.cpu.data            5                       # number of overall hits
system.cpu.dcache.overall_hits::.switch_cpus.data       303033                       # number of overall hits
system.cpu.dcache.overall_hits::total          303038                       # number of overall hits
system.cpu.dcache.demand_misses::.cpu.data            6                       # number of demand (read+write) misses
system.cpu.dcache.demand_misses::.switch_cpus.data        46280                       # number of demand (read+write) misses
system.cpu.dcache.demand_misses::total          46286                       # number of demand (read+write) misses
system.cpu.dcache.overall_misses::.cpu.data            6                       # number of overall misses
system.cpu.dcache.overall_misses::.switch_cpus.data        46280                       # number of overall misses
system.cpu.dcache.overall_misses::total         46286                       # number of overall misses
system.cpu.dcache.demand_miss_latency::.switch_cpus.data    621764000                       # number of demand (read+write) miss cycles
system.cpu.dcache.demand_miss_latency::total    621764000                       # number of demand (read+write) miss cycles
system.cpu.dcache.overall_miss_latency::.switch_cpus.data    621764000                       # number of overall miss cycles
system.cpu.dcache.overall_miss_latency::total    621764000                       # number of overall miss cycles
system.cpu.dcache.demand_accesses::.cpu.data           11                       # number of demand (read+write) accesses
system.cpu.dcache.demand_accesses::.switch_cpus.data       349313                       # number of demand (read+write) accesses
system.cpu.dcache.demand_accesses::total       349324                       # number of demand (read+write) accesses
system.cpu.dcache.overall_accesses::.cpu.data           11                       # number of overall (read+write) accesses
system.cpu.dcache.overall_accesses::.switch_cpus.data       349313                       # number of overall (read+write) accesses
system.cpu.dcache.overall_accesses::total       349324                       # number of overall (read+write) accesses
system.cpu.dcache.demand_miss_rate::.cpu.data     0.545455                       # miss rate for demand accesses
system.cpu.dcache.demand_miss_rate::.switch_cpus.data     0.132489                       # miss rate for demand accesses
system.cpu.dcache.demand_miss_rate::total     0.132502                       # miss rate for demand accesses
system.cpu.dcache.overall_miss_rate::.cpu.data     0.545455                       # miss rate for overall accesses
system.cpu.dcache.overall_miss_rate::.switch_cpus.data     0.132489                       # miss rate for overall accesses
system.cpu.dcache.overall_miss_rate::total     0.132502                       # miss rate for overall accesses
system.cpu.dcache.demand_avg_miss_latency::.switch_cpus.data 13434.831461                       # average overall miss latency
system.cpu.dcache.demand_avg_miss_latency::total 13433.089919                       # average overall miss latency
system.cpu.dcache.overall_avg_miss_latency::.switch_cpus.data 13434.831461                       # average overall miss latency
system.cpu.dcache.overall_avg_miss_latency::total 13433.089919                       # average overall miss latency
system.cpu.dcache.blocked_cycles::no_mshrs          261                       # number of cycles access was blocked
system.cpu.dcache.blocked_cycles::no_targets         3299                       # number of cycles access was blocked
system.cpu.dcache.blocked::no_mshrs                11                       # number of cycles access was blocked
system.cpu.dcache.blocked::no_targets             201                       # number of cycles access was blocked
system.cpu.dcache.avg_blocked_cycles::no_mshrs    23.727273                       # average number of cycles each access was blocked
system.cpu.dcache.avg_blocked_cycles::no_targets    16.412935                       # average number of cycles each access was blocked
system.cpu.dcache.writebacks::.writebacks        22234                       # number of writebacks
system.cpu.dcache.writebacks::total             22234                       # number of writebacks
system.cpu.dcache.demand_mshr_hits::.switch_cpus.data        23924                       # number of demand (read+write) MSHR hits
system.cpu.dcache.demand_mshr_hits::total        23924                       # number of demand (read+write) MSHR hits
system.cpu.dcache.overall_mshr_hits::.switch_cpus.data        23924                       # number of overall MSHR hits
system.cpu.dcache.overall_mshr_hits::total        23924                       # number of overall MSHR hits
system.cpu.dcache.demand_mshr_misses::.switch_cpus.data        22356                       # number of demand (read+write) MSHR misses
system.cpu.dcache.demand_mshr_misses::total        22356                       # number of demand (read+write) MSHR misses
system.cpu.dcache.overall_mshr_misses::.switch_cpus.data        22356                       # number of overall MSHR misses
system.cpu.dcache.overall_mshr_misses::total        22356                       # number of overall MSHR misses
system.cpu.dcache.demand_mshr_miss_latency::.switch_cpus.data    325068000                       # number of demand (read+write) MSHR miss cycles
system.cpu.dcache.demand_mshr_miss_latency::total    325068000                       # number of demand (read+write) MSHR miss cycles
system.cpu.dcache.overall_mshr_miss_latency::.switch_cpus.data    325068000                       # number of overall MSHR miss cycles
system.cpu.dcache.overall_mshr_miss_latency::total    325068000                       # number of overall MSHR miss cycles
system.cpu.dcache.demand_mshr_miss_rate::.switch_cpus.data     0.064000                       # mshr miss rate for demand accesses
system.cpu.dcache.demand_mshr_miss_rate::total     0.063998                       # mshr miss rate for demand accesses
system.cpu.dcache.overall_mshr_miss_rate::.switch_cpus.data     0.064000                       # mshr miss rate for overall accesses
system.cpu.dcache.overall_mshr_miss_rate::total     0.063998                       # mshr miss rate for overall accesses
system.cpu.dcache.demand_avg_mshr_miss_latency::.switch_cpus.data 14540.526033                       # average overall mshr miss latency
system.cpu.dcache.demand_avg_mshr_miss_latency::total 14540.526033                       # average overall mshr miss latency
system.cpu.dcache.overall_avg_mshr_miss_latency::.switch_cpus.data 14540.526033                       # average overall mshr miss latency
system.cpu.dcache.overall_avg_mshr_miss_latency::total 14540.526033                       # average overall mshr miss latency
system.cpu.dcache.replacements                  22234                       # number of replacements
system.cpu.dcache.ReadReq_hits::.cpu.data            4                       # number of ReadReq hits
system.cpu.dcache.ReadReq_hits::.switch_cpus.data       255222                       # number of ReadReq hits
system.cpu.dcache.ReadReq_hits::total          255226                       # number of ReadReq hits
system.cpu.dcache.ReadReq_misses::.cpu.data            6                       # number of ReadReq misses
system.cpu.dcache.ReadReq_misses::.switch_cpus.data        45030                       # number of ReadReq misses
system.cpu.dcache.ReadReq_misses::total         45036                       # number of ReadReq misses
system.cpu.dcache.ReadReq_miss_latency::.switch_cpus.data    591050000                       # number of ReadReq miss cycles
system.cpu.dcache.ReadReq_miss_latency::total    591050000                       # number of ReadReq miss cycles
system.cpu.dcache.ReadReq_accesses::.cpu.data           10                       # number of ReadReq accesses(hits+misses)
system.cpu.dcache.ReadReq_accesses::.switch_cpus.data       300252                       # number of ReadReq accesses(hits+misses)
system.cpu.dcache.ReadReq_accesses::total       300262                       # number of ReadReq accesses(hits+misses)
system.cpu.dcache.ReadReq_miss_rate::.cpu.data     0.600000                       # miss rate for ReadReq accesses
system.cpu.dcache.ReadReq_miss_rate::.switch_cpus.data     0.149974                       # miss rate for ReadReq accesses
system.cpu.dcache.ReadReq_miss_rate::total     0.149989                       # miss rate for ReadReq accesses
system.cpu.dcache.ReadReq_avg_miss_latency::.switch_cpus.data 13125.693982                       # average ReadReq miss latency
system.cpu.dcache.ReadReq_avg_miss_latency::total 13123.945288                       # average ReadReq miss latency
system.cpu.dcache.ReadReq_mshr_hits::.switch_cpus.data        23323                       # number of ReadReq MSHR hits
system.cpu.dcache.ReadReq_mshr_hits::total        23323                       # number of ReadReq MSHR hits
system.cpu.dcache.ReadReq_mshr_misses::.switch_cpus.data        21707                       # number of ReadReq MSHR misses
system.cpu.dcache.ReadReq_mshr_misses::total        21707                       # number of ReadReq MSHR misses
system.cpu.dcache.ReadReq_mshr_miss_latency::.switch_cpus.data    300408400                       # number of ReadReq MSHR miss cycles
system.cpu.dcache.ReadReq_mshr_miss_latency::total    300408400                       # number of ReadReq MSHR miss cycles
system.cpu.dcache.ReadReq_mshr_miss_rate::.switch_cpus.data     0.072296                       # mshr miss rate for ReadReq accesses
system.cpu.dcache.ReadReq_mshr_miss_rate::total     0.072294                       # mshr miss rate for ReadReq accesses
system.cpu.dcache.ReadReq_avg_mshr_miss_latency::.switch_cpus.data 13839.240798                       # average ReadReq mshr miss latency
system.cpu.dcache.ReadReq_avg_mshr_miss_latency::total 13839.240798                       # average ReadReq mshr miss latency
system.cpu.dcache.WriteReq_hits::.cpu.data            1                       # number of WriteReq hits
system.cpu.dcache.WriteReq_hits::.switch_cpus.data        47811                       # number of WriteReq hits
system.cpu.dcache.WriteReq_hits::total          47812                       # number of WriteReq hits
system.cpu.dcache.WriteReq_misses::.switch_cpus.data         1250                       # number of WriteReq misses
system.cpu.dcache.WriteReq_misses::total         1250                       # number of WriteReq misses
system.cpu.dcache.WriteReq_miss_latency::.switch_cpus.data     30714000                       # number of WriteReq miss cycles
system.cpu.dcache.WriteReq_miss_latency::total     30714000                       # number of WriteReq miss cycles
system.cpu.dcache.WriteReq_accesses::.cpu.data            1                       # number of WriteReq accesses(hits+misses)
system.cpu.dcache.WriteReq_accesses::.switch_cpus.data        49061                       # number of WriteReq accesses(hits+misses)
system.cpu.dcache.WriteReq_accesses::total        49062                       # number of WriteReq accesses(hits+misses)
system.cpu.dcache.WriteReq_miss_rate::.switch_cpus.data     0.025478                       # miss rate for WriteReq accesses
system.cpu.dcache.WriteReq_miss_rate::total     0.025478                       # miss rate for WriteReq accesses
system.cpu.dcache.WriteReq_avg_miss_latency::.switch_cpus.data 24571.200000                       # average WriteReq miss latency
system.cpu.dcache.WriteReq_avg_miss_latency::total 24571.200000                       # average WriteReq miss latency
system.cpu.dcache.WriteReq_mshr_hits::.switch_cpus.data          601                       # number of WriteReq MSHR hits
system.cpu.dcache.WriteReq_mshr_hits::total          601                       # number of WriteReq MSHR hits
system.cpu.dcache.WriteReq_mshr_misses::.switch_cpus.data          649                       # number of WriteReq MSHR misses
system.cpu.dcache.WriteReq_mshr_misses::total          649                       # number of WriteReq MSHR misses
system.cpu.dcache.WriteReq_mshr_miss_latency::.switch_cpus.data     24659600                       # number of WriteReq MSHR miss cycles
system.cpu.dcache.WriteReq_mshr_miss_latency::total     24659600                       # number of WriteReq MSHR miss cycles
system.cpu.dcache.WriteReq_mshr_miss_rate::.switch_cpus.data     0.013228                       # mshr miss rate for WriteReq accesses
system.cpu.dcache.WriteReq_mshr_miss_rate::total     0.013228                       # mshr miss rate for WriteReq accesses
system.cpu.dcache.WriteReq_avg_mshr_miss_latency::.switch_cpus.data 37996.302003                       # average WriteReq mshr miss latency
system.cpu.dcache.WriteReq_avg_mshr_miss_latency::total 37996.302003                       # average WriteReq mshr miss latency
system.cpu.dcache.power_state.pwrStateResidencyTicks::UNDEFINED 318090887200                       # Cumulative time (in ticks) in various power states
system.cpu.dcache.tags.tagsinuse           126.158607                       # Cycle average of tags in use
system.cpu.dcache.tags.total_refs              299454                       # Total number of references to valid blocks.
system.cpu.dcache.tags.sampled_refs             22234                       # Sample count of references to valid blocks.
system.cpu.dcache.tags.avg_refs             13.468292                       # Average number of references to valid blocks.
system.cpu.dcache.tags.warmup_cycle      317781726800                       # Cycle when the warmup percentage was hit.
system.cpu.dcache.tags.occ_blocks::.cpu.data     0.007838                       # Average occupied blocks per requestor
system.cpu.dcache.tags.occ_blocks::.switch_cpus.data   126.150769                       # Average occupied blocks per requestor
system.cpu.dcache.tags.occ_percent::.cpu.data     0.000061                       # Average percentage of cache occupancy
system.cpu.dcache.tags.occ_percent::.switch_cpus.data     0.985553                       # Average percentage of cache occupancy
system.cpu.dcache.tags.occ_percent::total     0.985614                       # Average percentage of cache occupancy
system.cpu.dcache.tags.occ_task_id_blocks::1024          128                       # Occupied blocks per task id
system.cpu.dcache.tags.age_task_id_blocks_1024::0           86                       # Occupied blocks per task id
system.cpu.dcache.tags.age_task_id_blocks_1024::1           42                       # Occupied blocks per task id
system.cpu.dcache.tags.occ_task_id_percent::1024            1                       # Percentage of cache occupancy per task id
system.cpu.dcache.tags.tag_accesses            371686                       # Number of tag accesses
system.cpu.dcache.tags.data_accesses           371686                       # Number of data accesses
system.cpu.dcache.tags.power_state.pwrStateResidencyTicks::UNDEFINED 318090887200                       # Cumulative time (in ticks) in various power states
system.cpu.dtb.instHits                             0                       # ITB inst hits
system.cpu.dtb.instMisses                           0                       # ITB inst misses
system.cpu.dtb.readHits                             0                       # DTB read hits
system.cpu.dtb.readMisses                           0                       # DTB read misses
system.cpu.dtb.writeHits                            0                       # DTB write hits
system.cpu.dtb.writeMisses                          0                       # DTB write misses
system.cpu.dtb.inserts                              0                       # Number of times an entry is inserted into the TLB
system.cpu.dtb.flushTlb                             2                       # Number of times complete TLB was flushed
system.cpu.dtb.flushTlbMva                          0                       # Number of times TLB was flushed by MVA
system.cpu.dtb.flushTlbMvaAsid                      0                       # Number of times TLB was flushed by MVA & ASID
system.cpu.dtb.flushTlbAsid                         0                       # Number of times TLB was flushed by ASID
system.cpu.dtb.flushedEntries                       0                       # Number of entries that have been flushed from TLB
system.cpu.dtb.alignFaults                          0                       # Number of TLB faults due to alignment restrictions
system.cpu.dtb.prefetchFaults                       0                       # Number of TLB faults due to prefetch
system.cpu.dtb.domainFaults                         0                       # Number of TLB faults due to domain restrictions
system.cpu.dtb.permsFaults                          0                       # Number of TLB faults due to permissions restrictions
system.cpu.dtb.readAccesses                         0                       # DTB read accesses
system.cpu.dtb.writeAccesses                        0                       # DTB write accesses
system.cpu.dtb.instAccesses                         0                       # ITB inst accesses
system.cpu.dtb.hits                                 0                       # Total TLB (inst and data) hits
system.cpu.dtb.misses                               0                       # Total TLB (inst and data) misses
system.cpu.dtb.accesses                             0                       # Total TLB (inst and data) accesses
system.cpu.dtb.stage2_mmu.stage2_tlb.instHits            0                       # ITB inst hits
system.cpu.dtb.stage2_mmu.stage2_tlb.instMisses            0                       # ITB inst misses
system.cpu.dtb.stage2_mmu.stage2_tlb.readHits            0                       # DTB read hits
system.cpu.dtb.stage2_mmu.stage2_tlb.readMisses            0                       # DTB read misses
system.cpu.dtb.stage2_mmu.stage2_tlb.writeHits            0                       # DTB write hits
system.cpu.dtb.stage2_mmu.stage2_tlb.writeMisses            0                       # DTB write misses
system.cpu.dtb.stage2_mmu.stage2_tlb.inserts            0                       # Number of times an entry is inserted into the TLB
system.cpu.dtb.stage2_mmu.stage2_tlb.flushTlb            0                       # Number of times complete TLB was flushed
system.cpu.dtb.stage2_mmu.stage2_tlb.flushTlbMva            0                       # Number of times TLB was flushed by MVA
system.cpu.dtb.stage2_mmu.stage2_tlb.flushTlbMvaAsid            0                       # Number of times TLB was flushed by MVA & ASID
system.cpu.dtb.stage2_mmu.stage2_tlb.flushTlbAsid            0                       # Number of times TLB was flushed by ASID
system.cpu.dtb.stage2_mmu.stage2_tlb.flushedEntries            0                       # Number of entries that have been flushed from TLB
system.cpu.dtb.stage2_mmu.stage2_tlb.alignFaults            0                       # Number of TLB faults due to alignment restrictions
system.cpu.dtb.stage2_mmu.stage2_tlb.prefetchFaults            0                       # Number of TLB faults due to prefetch
system.cpu.dtb.stage2_mmu.stage2_tlb.domainFaults            0                       # Number of TLB faults due to domain restrictions
system.cpu.dtb.stage2_mmu.stage2_tlb.permsFaults            0                       # Number of TLB faults due to permissions restrictions
system.cpu.dtb.stage2_mmu.stage2_tlb.readAccesses            0                       # DTB read accesses
system.cpu.dtb.stage2_mmu.stage2_tlb.writeAccesses            0                       # DTB write accesses
system.cpu.dtb.stage2_mmu.stage2_tlb.instAccesses            0                       # ITB inst accesses
system.cpu.dtb.stage2_mmu.stage2_tlb.hits            0                       # Total TLB (inst and data) hits
system.cpu.dtb.stage2_mmu.stage2_tlb.misses            0                       # Total TLB (inst and data) misses
system.cpu.dtb.stage2_mmu.stage2_tlb.accesses            0                       # Total TLB (inst and data) accesses
system.cpu.dtb.stage2_mmu.stage2_tlb.walker.walks            0                       # Table walker walks requested
system.cpu.dtb.stage2_mmu.stage2_tlb.walker.requestOrigin_Requested::Data            0                       # Table walker requests started/completed, data/inst
system.cpu.dtb.stage2_mmu.stage2_tlb.walker.requestOrigin_Requested::Inst            0                       # Table walker requests started/completed, data/inst
system.cpu.dtb.stage2_mmu.stage2_tlb.walker.requestOrigin_Requested::total            0                       # Table walker requests started/completed, data/inst
system.cpu.dtb.stage2_mmu.stage2_tlb.walker.requestOrigin_Completed::Data            0                       # Table walker requests started/completed, data/inst
system.cpu.dtb.stage2_mmu.stage2_tlb.walker.requestOrigin_Completed::Inst            0                       # Table walker requests started/completed, data/inst
system.cpu.dtb.stage2_mmu.stage2_tlb.walker.requestOrigin_Completed::total            0                       # Table walker requests started/completed, data/inst
system.cpu.dtb.stage2_mmu.stage2_tlb.walker.requestOrigin::total            0                       # Table walker requests started/completed, data/inst
system.cpu.dtb.stage2_mmu.stage2_tlb.walker.power_state.pwrStateResidencyTicks::UNDEFINED 318090887200                       # Cumulative time (in ticks) in various power states
system.cpu.dtb.walker.walks                         0                       # Table walker walks requested
system.cpu.dtb.walker.requestOrigin_Requested::Data            0                       # Table walker requests started/completed, data/inst
system.cpu.dtb.walker.requestOrigin_Requested::Inst            0                       # Table walker requests started/completed, data/inst
system.cpu.dtb.walker.requestOrigin_Requested::total            0                       # Table walker requests started/completed, data/inst
system.cpu.dtb.walker.requestOrigin_Completed::Data            0                       # Table walker requests started/completed, data/inst
system.cpu.dtb.walker.requestOrigin_Completed::Inst            0                       # Table walker requests started/completed, data/inst
system.cpu.dtb.walker.requestOrigin_Completed::total            0                       # Table walker requests started/completed, data/inst
system.cpu.dtb.walker.requestOrigin::total            0                       # Table walker requests started/completed, data/inst
system.cpu.dtb.walker.power_state.pwrStateResidencyTicks::UNDEFINED 318090887200                       # Cumulative time (in ticks) in various power states
system.cpu.dtb_walker_cache.blocked_cycles::no_mshrs            0                       # number of cycles access was blocked
system.cpu.dtb_walker_cache.blocked_cycles::no_targets            0                       # number of cycles access was blocked
system.cpu.dtb_walker_cache.blocked::no_mshrs            0                       # number of cycles access was blocked
system.cpu.dtb_walker_cache.blocked::no_targets            0                       # number of cycles access was blocked
system.cpu.dtb_walker_cache.avg_blocked_cycles::no_mshrs          nan                       # average number of cycles each access was blocked
system.cpu.dtb_walker_cache.avg_blocked_cycles::no_targets          nan                       # average number of cycles each access was blocked
system.cpu.dtb_walker_cache.replacements            0                       # number of replacements
system.cpu.dtb_walker_cache.power_state.pwrStateResidencyTicks::UNDEFINED 318090887200                       # Cumulative time (in ticks) in various power states
system.cpu.dtb_walker_cache.tags.tagsinuse            0                       # Cycle average of tags in use
system.cpu.dtb_walker_cache.tags.total_refs            0                       # Total number of references to valid blocks.
system.cpu.dtb_walker_cache.tags.sampled_refs            0                       # Sample count of references to valid blocks.
system.cpu.dtb_walker_cache.tags.avg_refs          nan                       # Average number of references to valid blocks.
system.cpu.dtb_walker_cache.tags.warmup_cycle            0                       # Cycle when the warmup percentage was hit.
system.cpu.dtb_walker_cache.tags.tag_accesses            0                       # Number of tag accesses
system.cpu.dtb_walker_cache.tags.data_accesses            0                       # Number of data accesses
system.cpu.dtb_walker_cache.tags.power_state.pwrStateResidencyTicks::UNDEFINED 318090887200                       # Cumulative time (in ticks) in various power states
system.cpu.icache.demand_hits::.cpu.inst           23                       # number of demand (read+write) hits
system.cpu.icache.demand_hits::.switch_cpus.inst       142158                       # number of demand (read+write) hits
system.cpu.icache.demand_hits::total           142181                       # number of demand (read+write) hits
system.cpu.icache.overall_hits::.cpu.inst           23                       # number of overall hits
system.cpu.icache.overall_hits::.switch_cpus.inst       142158                       # number of overall hits
system.cpu.icache.overall_hits::total          142181                       # number of overall hits
system.cpu.icache.demand_misses::.cpu.inst            2                       # number of demand (read+write) misses
system.cpu.icache.demand_misses::.switch_cpus.inst         1215                       # number of demand (read+write) misses
system.cpu.icache.demand_misses::total           1217                       # number of demand (read+write) misses
system.cpu.icache.overall_misses::.cpu.inst            2                       # number of overall misses
system.cpu.icache.overall_misses::.switch_cpus.inst         1215                       # number of overall misses
system.cpu.icache.overall_misses::total          1217                       # number of overall misses
system.cpu.icache.demand_miss_latency::.switch_cpus.inst     18011199                       # number of demand (read+write) miss cycles
system.cpu.icache.demand_miss_latency::total     18011199                       # number of demand (read+write) miss cycles
system.cpu.icache.overall_miss_latency::.switch_cpus.inst     18011199                       # number of overall miss cycles
system.cpu.icache.overall_miss_latency::total     18011199                       # number of overall miss cycles
system.cpu.icache.demand_accesses::.cpu.inst           25                       # number of demand (read+write) accesses
system.cpu.icache.demand_accesses::.switch_cpus.inst       143373                       # number of demand (read+write) accesses
system.cpu.icache.demand_accesses::total       143398                       # number of demand (read+write) accesses
system.cpu.icache.overall_accesses::.cpu.inst           25                       # number of overall (read+write) accesses
system.cpu.icache.overall_accesses::.switch_cpus.inst       143373                       # number of overall (read+write) accesses
system.cpu.icache.overall_accesses::total       143398                       # number of overall (read+write) accesses
system.cpu.icache.demand_miss_rate::.cpu.inst     0.080000                       # miss rate for demand accesses
system.cpu.icache.demand_miss_rate::.switch_cpus.inst     0.008474                       # miss rate for demand accesses
system.cpu.icache.demand_miss_rate::total     0.008487                       # miss rate for demand accesses
system.cpu.icache.overall_miss_rate::.cpu.inst     0.080000                       # miss rate for overall accesses
system.cpu.icache.overall_miss_rate::.switch_cpus.inst     0.008474                       # miss rate for overall accesses
system.cpu.icache.overall_miss_rate::total     0.008487                       # miss rate for overall accesses
system.cpu.icache.demand_avg_miss_latency::.switch_cpus.inst 14824.032099                       # average overall miss latency
system.cpu.icache.demand_avg_miss_latency::total 14799.670501                       # average overall miss latency
system.cpu.icache.overall_avg_miss_latency::.switch_cpus.inst 14824.032099                       # average overall miss latency
system.cpu.icache.overall_avg_miss_latency::total 14799.670501                       # average overall miss latency
system.cpu.icache.blocked_cycles::no_mshrs         4408                       # number of cycles access was blocked
system.cpu.icache.blocked_cycles::no_targets           58                       # number of cycles access was blocked
system.cpu.icache.blocked::no_mshrs                52                       # number of cycles access was blocked
system.cpu.icache.blocked::no_targets               1                       # number of cycles access was blocked
system.cpu.icache.avg_blocked_cycles::no_mshrs    84.769231                       # average number of cycles each access was blocked
system.cpu.icache.avg_blocked_cycles::no_targets           58                       # average number of cycles each access was blocked
system.cpu.icache.writebacks::.writebacks         1067                       # number of writebacks
system.cpu.icache.writebacks::total              1067                       # number of writebacks
system.cpu.icache.demand_mshr_hits::.switch_cpus.inst           73                       # number of demand (read+write) MSHR hits
system.cpu.icache.demand_mshr_hits::total           73                       # number of demand (read+write) MSHR hits
system.cpu.icache.overall_mshr_hits::.switch_cpus.inst           73                       # number of overall MSHR hits
system.cpu.icache.overall_mshr_hits::total           73                       # number of overall MSHR hits
system.cpu.icache.demand_mshr_misses::.switch_cpus.inst         1142                       # number of demand (read+write) MSHR misses
system.cpu.icache.demand_mshr_misses::total         1142                       # number of demand (read+write) MSHR misses
system.cpu.icache.overall_mshr_misses::.switch_cpus.inst         1142                       # number of overall MSHR misses
system.cpu.icache.overall_mshr_misses::total         1142                       # number of overall MSHR misses
system.cpu.icache.demand_mshr_miss_latency::.switch_cpus.inst     15989199                       # number of demand (read+write) MSHR miss cycles
system.cpu.icache.demand_mshr_miss_latency::total     15989199                       # number of demand (read+write) MSHR miss cycles
system.cpu.icache.overall_mshr_miss_latency::.switch_cpus.inst     15989199                       # number of overall MSHR miss cycles
system.cpu.icache.overall_mshr_miss_latency::total     15989199                       # number of overall MSHR miss cycles
system.cpu.icache.demand_mshr_miss_rate::.switch_cpus.inst     0.007965                       # mshr miss rate for demand accesses
system.cpu.icache.demand_mshr_miss_rate::total     0.007964                       # mshr miss rate for demand accesses
system.cpu.icache.overall_mshr_miss_rate::.switch_cpus.inst     0.007965                       # mshr miss rate for overall accesses
system.cpu.icache.overall_mshr_miss_rate::total     0.007964                       # mshr miss rate for overall accesses
system.cpu.icache.demand_avg_mshr_miss_latency::.switch_cpus.inst 14001.049912                       # average overall mshr miss latency
system.cpu.icache.demand_avg_mshr_miss_latency::total 14001.049912                       # average overall mshr miss latency
system.cpu.icache.overall_avg_mshr_miss_latency::.switch_cpus.inst 14001.049912                       # average overall mshr miss latency
system.cpu.icache.overall_avg_mshr_miss_latency::total 14001.049912                       # average overall mshr miss latency
system.cpu.icache.replacements                   1067                       # number of replacements
system.cpu.icache.ReadReq_hits::.cpu.inst           23                       # number of ReadReq hits
system.cpu.icache.ReadReq_hits::.switch_cpus.inst       142158                       # number of ReadReq hits
system.cpu.icache.ReadReq_hits::total          142181                       # number of ReadReq hits
system.cpu.icache.ReadReq_misses::.cpu.inst            2                       # number of ReadReq misses
system.cpu.icache.ReadReq_misses::.switch_cpus.inst         1215                       # number of ReadReq misses
system.cpu.icache.ReadReq_misses::total          1217                       # number of ReadReq misses
system.cpu.icache.ReadReq_miss_latency::.switch_cpus.inst     18011199                       # number of ReadReq miss cycles
system.cpu.icache.ReadReq_miss_latency::total     18011199                       # number of ReadReq miss cycles
system.cpu.icache.ReadReq_accesses::.cpu.inst           25                       # number of ReadReq accesses(hits+misses)
system.cpu.icache.ReadReq_accesses::.switch_cpus.inst       143373                       # number of ReadReq accesses(hits+misses)
system.cpu.icache.ReadReq_accesses::total       143398                       # number of ReadReq accesses(hits+misses)
system.cpu.icache.ReadReq_miss_rate::.cpu.inst     0.080000                       # miss rate for ReadReq accesses
system.cpu.icache.ReadReq_miss_rate::.switch_cpus.inst     0.008474                       # miss rate for ReadReq accesses
system.cpu.icache.ReadReq_miss_rate::total     0.008487                       # miss rate for ReadReq accesses
system.cpu.icache.ReadReq_avg_miss_latency::.switch_cpus.inst 14824.032099                       # average ReadReq miss latency
system.cpu.icache.ReadReq_avg_miss_latency::total 14799.670501                       # average ReadReq miss latency
system.cpu.icache.ReadReq_mshr_hits::.switch_cpus.inst           73                       # number of ReadReq MSHR hits
system.cpu.icache.ReadReq_mshr_hits::total           73                       # number of ReadReq MSHR hits
system.cpu.icache.ReadReq_mshr_misses::.switch_cpus.inst         1142                       # number of ReadReq MSHR misses
system.cpu.icache.ReadReq_mshr_misses::total         1142                       # number of ReadReq MSHR misses
system.cpu.icache.ReadReq_mshr_miss_latency::.switch_cpus.inst     15989199                       # number of ReadReq MSHR miss cycles
system.cpu.icache.ReadReq_mshr_miss_latency::total     15989199                       # number of ReadReq MSHR miss cycles
system.cpu.icache.ReadReq_mshr_miss_rate::.switch_cpus.inst     0.007965                       # mshr miss rate for ReadReq accesses
system.cpu.icache.ReadReq_mshr_miss_rate::total     0.007964                       # mshr miss rate for ReadReq accesses
system.cpu.icache.ReadReq_avg_mshr_miss_latency::.switch_cpus.inst 14001.049912                       # average ReadReq mshr miss latency
system.cpu.icache.ReadReq_avg_mshr_miss_latency::total 14001.049912                       # average ReadReq mshr miss latency
system.cpu.icache.power_state.pwrStateResidencyTicks::UNDEFINED 318090887200                       # Cumulative time (in ticks) in various power states
system.cpu.icache.tags.tagsinuse            15.247079                       # Cycle average of tags in use
system.cpu.icache.tags.total_refs               17804                       # Total number of references to valid blocks.
system.cpu.icache.tags.sampled_refs              1067                       # Sample count of references to valid blocks.
system.cpu.icache.tags.avg_refs             16.686036                       # Average number of references to valid blocks.
system.cpu.icache.tags.warmup_cycle      317781726400                       # Cycle when the warmup percentage was hit.
system.cpu.icache.tags.occ_blocks::.cpu.inst     1.999995                       # Average occupied blocks per requestor
system.cpu.icache.tags.occ_blocks::.switch_cpus.inst    13.247084                       # Average occupied blocks per requestor
system.cpu.icache.tags.occ_percent::.cpu.inst     0.007812                       # Average percentage of cache occupancy
system.cpu.icache.tags.occ_percent::.switch_cpus.inst     0.051746                       # Average percentage of cache occupancy
system.cpu.icache.tags.occ_percent::total     0.059559                       # Average percentage of cache occupancy
system.cpu.icache.tags.occ_task_id_blocks::1024           77                       # Occupied blocks per task id
system.cpu.icache.tags.age_task_id_blocks_1024::0           67                       # Occupied blocks per task id
system.cpu.icache.tags.age_task_id_blocks_1024::2           10                       # Occupied blocks per task id
system.cpu.icache.tags.occ_task_id_percent::1024     0.300781                       # Percentage of cache occupancy per task id
system.cpu.icache.tags.tag_accesses            144542                       # Number of tag accesses
system.cpu.icache.tags.data_accesses           144542                       # Number of data accesses
system.cpu.icache.tags.power_state.pwrStateResidencyTicks::UNDEFINED 318090887200                       # Cumulative time (in ticks) in various power states
system.cpu.itb.instHits                             0                       # ITB inst hits
system.cpu.itb.instMisses                           0                       # ITB inst misses
system.cpu.itb.readHits                             0                       # DTB read hits
system.cpu.itb.readMisses                           0                       # DTB read misses
system.cpu.itb.writeHits                            0                       # DTB write hits
system.cpu.itb.writeMisses                          0                       # DTB write misses
system.cpu.itb.inserts                              0                       # Number of times an entry is inserted into the TLB
system.cpu.itb.flushTlb                             2                       # Number of times complete TLB was flushed
system.cpu.itb.flushTlbMva                          0                       # Number of times TLB was flushed by MVA
system.cpu.itb.flushTlbMvaAsid                      0                       # Number of times TLB was flushed by MVA & ASID
system.cpu.itb.flushTlbAsid                         0                       # Number of times TLB was flushed by ASID
system.cpu.itb.flushedEntries                       0                       # Number of entries that have been flushed from TLB
system.cpu.itb.alignFaults                          0                       # Number of TLB faults due to alignment restrictions
system.cpu.itb.prefetchFaults                       0                       # Number of TLB faults due to prefetch
system.cpu.itb.domainFaults                         0                       # Number of TLB faults due to domain restrictions
system.cpu.itb.permsFaults                          0                       # Number of TLB faults due to permissions restrictions
system.cpu.itb.readAccesses                         0                       # DTB read accesses
system.cpu.itb.writeAccesses                        0                       # DTB write accesses
system.cpu.itb.instAccesses                         0                       # ITB inst accesses
system.cpu.itb.hits                                 0                       # Total TLB (inst and data) hits
system.cpu.itb.misses                               0                       # Total TLB (inst and data) misses
system.cpu.itb.accesses                             0                       # Total TLB (inst and data) accesses
system.cpu.itb.stage2_mmu.stage2_tlb.instHits            0                       # ITB inst hits
system.cpu.itb.stage2_mmu.stage2_tlb.instMisses            0                       # ITB inst misses
system.cpu.itb.stage2_mmu.stage2_tlb.readHits            0                       # DTB read hits
system.cpu.itb.stage2_mmu.stage2_tlb.readMisses            0                       # DTB read misses
system.cpu.itb.stage2_mmu.stage2_tlb.writeHits            0                       # DTB write hits
system.cpu.itb.stage2_mmu.stage2_tlb.writeMisses            0                       # DTB write misses
system.cpu.itb.stage2_mmu.stage2_tlb.inserts            0                       # Number of times an entry is inserted into the TLB
system.cpu.itb.stage2_mmu.stage2_tlb.flushTlb            0                       # Number of times complete TLB was flushed
system.cpu.itb.stage2_mmu.stage2_tlb.flushTlbMva            0                       # Number of times TLB was flushed by MVA
system.cpu.itb.stage2_mmu.stage2_tlb.flushTlbMvaAsid            0                       # Number of times TLB was flushed by MVA & ASID
system.cpu.itb.stage2_mmu.stage2_tlb.flushTlbAsid            0                       # Number of times TLB was flushed by ASID
system.cpu.itb.stage2_mmu.stage2_tlb.flushedEntries            0                       # Number of entries that have been flushed from TLB
system.cpu.itb.stage2_mmu.stage2_tlb.alignFaults            0                       # Number of TLB faults due to alignment restrictions
system.cpu.itb.stage2_mmu.stage2_tlb.prefetchFaults            0                       # Number of TLB faults due to prefetch
system.cpu.itb.stage2_mmu.stage2_tlb.domainFaults            0                       # Number of TLB faults due to domain restrictions
system.cpu.itb.stage2_mmu.stage2_tlb.permsFaults            0                       # Number of TLB faults due to permissions restrictions
system.cpu.itb.stage2_mmu.stage2_tlb.readAccesses            0                       # DTB read accesses
system.cpu.itb.stage2_mmu.stage2_tlb.writeAccesses            0                       # DTB write accesses
system.cpu.itb.stage2_mmu.stage2_tlb.instAccesses            0                       # ITB inst accesses
system.cpu.itb.stage2_mmu.stage2_tlb.hits            0                       # Total TLB (inst and data) hits
system.cpu.itb.stage2_mmu.stage2_tlb.misses            0                       # Total TLB (inst and data) misses
system.cpu.itb.stage2_mmu.stage2_tlb.accesses            0                       # Total TLB (inst and data) accesses
system.cpu.itb.stage2_mmu.stage2_tlb.walker.walks            0                       # Table walker walks requested
system.cpu.itb.stage2_mmu.stage2_tlb.walker.requestOrigin_Requested::Data            0                       # Table walker requests started/completed, data/inst
system.cpu.itb.stage2_mmu.stage2_tlb.walker.requestOrigin_Requested::Inst            0                       # Table walker requests started/completed, data/inst
system.cpu.itb.stage2_mmu.stage2_tlb.walker.requestOrigin_Requested::total            0                       # Table walker requests started/completed, data/inst
system.cpu.itb.stage2_mmu.stage2_tlb.walker.requestOrigin_Completed::Data            0                       # Table walker requests started/completed, data/inst
system.cpu.itb.stage2_mmu.stage2_tlb.walker.requestOrigin_Completed::Inst            0                       # Table walker requests started/completed, data/inst
system.cpu.itb.stage2_mmu.stage2_tlb.walker.requestOrigin_Completed::total            0                       # Table walker requests started/completed, data/inst
system.cpu.itb.stage2_mmu.stage2_tlb.walker.requestOrigin::total            0                       # Table walker requests started/completed, data/inst
system.cpu.itb.stage2_mmu.stage2_tlb.walker.power_state.pwrStateResidencyTicks::UNDEFINED 318090887200                       # Cumulative time (in ticks) in various power states
system.cpu.itb.walker.walks                         0                       # Table walker walks requested
system.cpu.itb.walker.requestOrigin_Requested::Data            0                       # Table walker requests started/completed, data/inst
system.cpu.itb.walker.requestOrigin_Requested::Inst            0                       # Table walker requests started/completed, data/inst
system.cpu.itb.walker.requestOrigin_Requested::total            0                       # Table walker requests started/completed, data/inst
[...]
system.switch_cpus.fetch.branches             1588617                       # Number of branches that fetch encountered
system.switch_cpus.fetch.predictedBranches      1099257                       # Number of branches that fetch has predicted taken
system.switch_cpus.fetch.cycles               8178356                       # Number of cycles fetch has run and was not squashing or blocked
system.switch_cpus.fetch.squashCycles           48742                       # Number of cycles fetch has spent squashing
system.switch_cpus.fetch.miscStallCycles          493                       # Number of cycles fetch has spent waiting on interrupts,or bad addresses, or out of MSHRs
system.switch_cpus.fetch.icacheWaitRetryStallCycles          228                       # Number of stall cycles due to full MSHR
system.switch_cpus.fetch.cacheLines           1532127                       # Number of cache lines fetched
system.switch_cpus.fetch.icacheSquashes           773                       # Number of outstanding Icache misses that were squashed
system.switch_cpus.fetch.nisnDist::samples      8241705                       # Number of instructions fetched each cycle (Total)
system.switch_cpus.fetch.nisnDist::mean      1.609884                       # Number of instructions fetched each cycle (Total)
system.switch_cpus.fetch.nisnDist::stdev     2.705603                       # Number of instructions fetched each cycle (Total)
system.switch_cpus.fetch.nisnDist::underflows            0      0.00%      0.00% # Number of instructions fetched each cycle (Total)
system.switch_cpus.fetch.nisnDist::0          5600039     67.95%     67.95% # Number of instructions fetched each cycle (Total)
system.switch_cpus.fetch.nisnDist::1           252128      3.06%     71.01% # Number of instructions fetched each cycle (Total)
system.switch_cpus.fetch.nisnDist::2           169591      2.06%     73.06% # Number of instructions fetched each cycle (Total)
system.switch_cpus.fetch.nisnDist::3           387830      4.71%     77.77% # Number of instructions fetched each cycle (Total)
system.switch_cpus.fetch.nisnDist::4           503134      6.10%     83.87% # Number of instructions fetched each cycle (Total)
system.switch_cpus.fetch.nisnDist::5           108110      1.31%     85.19% # Number of instructions fetched each cycle (Total)
system.switch_cpus.fetch.nisnDist::6           241175      2.93%     88.11% # Number of instructions fetched each cycle (Total)
system.switch_cpus.fetch.nisnDist::7           324328      3.94%     92.05% # Number of instructions fetched each cycle (Total)
system.switch_cpus.fetch.nisnDist::8           655370      7.95%    100.00% # Number of instructions fetched each cycle (Total)
system.switch_cpus.fetch.nisnDist::overflows            0      0.00%    100.00% # Number of instructions fetched each cycle (Total)
system.switch_cpus.fetch.nisnDist::min_value            0                       # Number of instructions fetched each cycle (Total)
system.switch_cpus.fetch.nisnDist::max_value            8                       # Number of instructions fetched each cycle (Total)
system.switch_cpus.fetch.nisnDist::total      8241705                       # Number of instructions fetched each cycle (Total)
system.switch_cpus.fetch.branchRate          0.192672                       # Number of branch fetches per cycle
system.switch_cpus.fetch.rate                1.608237                       # Number of inst fetches per cycle
system.switch_cpus.itb.instHits                     0                       # ITB inst hits
system.switch_cpus.itb.instMisses                   0                       # ITB inst misses
system.switch_cpus.itb.readHits                     0                       # DTB read hits
system.switch_cpus.itb.readMisses                   0                       # DTB read misses
system.switch_cpus.itb.writeHits                    0                       # DTB write hits
system.switch_cpus.itb.writeMisses                  0                       # DTB write misses
system.switch_cpus.itb.inserts                      0                       # Number of times an entry is inserted into the TLB
system.switch_cpus.itb.flushTlb                     0                       # Number of times complete TLB was flushed
system.switch_cpus.itb.flushTlbMva                  0                       # Number of times TLB was flushed by MVA
system.switch_cpus.itb.flushTlbMvaAsid              0                       # Number of times TLB was flushed by MVA & ASID
system.switch_cpus.itb.flushTlbAsid                 0                       # Number of times TLB was flushed by ASID
system.switch_cpus.itb.flushedEntries               0                       # Number of entries that have been flushed from TLB
system.switch_cpus.itb.alignFaults                  0                       # Number of TLB faults due to alignment restrictions
system.switch_cpus.itb.prefetchFaults               0                       # Number of TLB faults due to prefetch
system.switch_cpus.itb.domainFaults                 0                       # Number of TLB faults due to domain restrictions
system.switch_cpus.itb.permsFaults                  0                       # Number of TLB faults due to permissions restrictions
system.switch_cpus.itb.readAccesses                 0                       # DTB read accesses
system.switch_cpus.itb.writeAccesses                0                       # DTB write accesses
system.switch_cpus.itb.instAccesses                 0                       # ITB inst accesses
system.switch_cpus.itb.hits                         0                       # Total TLB (inst and data) hits
system.switch_cpus.itb.misses                       0                       # Total TLB (inst and data) misses
system.switch_cpus.itb.accesses                     0                       # Total TLB (inst and data) accesses
system.switch_cpus.itb.stage2_mmu.stage2_tlb.instHits            0                       # ITB inst hits
system.switch_cpus.itb.stage2_mmu.stage2_tlb.instMisses            0                       # ITB inst misses
system.switch_cpus.itb.stage2_mmu.stage2_tlb.readHits            0                       # DTB read hits
system.switch_cpus.itb.stage2_mmu.stage2_tlb.readMisses            0                       # DTB read misses
system.switch_cpus.itb.stage2_mmu.stage2_tlb.writeHits            0                       # DTB write hits
system.switch_cpus.itb.stage2_mmu.stage2_tlb.writeMisses            0                       # DTB write misses
system.switch_cpus.itb.stage2_mmu.stage2_tlb.inserts            0                       # Number of times an entry is inserted into the TLB
system.switch_cpus.itb.stage2_mmu.stage2_tlb.flushTlb            0                       # Number of times complete TLB was flushed
system.switch_cpus.itb.stage2_mmu.stage2_tlb.flushTlbMva            0                       # Number of times TLB was flushed by MVA
system.switch_cpus.itb.stage2_mmu.stage2_tlb.flushTlbMvaAsid            0                       # Number of times TLB was flushed by MVA & ASID
system.switch_cpus.itb.stage2_mmu.stage2_tlb.flushTlbAsid            0                       # Number of times TLB was flushed by ASID
system.switch_cpus.itb.stage2_mmu.stage2_tlb.flushedEntries            0                       # Number of entries that have been flushed from TLB
system.switch_cpus.itb.stage2_mmu.stage2_tlb.alignFaults            0                       # Number of TLB faults due to alignment restrictions
system.switch_cpus.itb.stage2_mmu.stage2_tlb.prefetchFaults            0                       # Number of TLB faults due to prefetch
system.switch_cpus.itb.stage2_mmu.stage2_tlb.domainFaults            0                       # Number of TLB faults due to domain restrictions
system.switch_cpus.itb.stage2_mmu.stage2_tlb.permsFaults            0                       # Number of TLB faults due to permissions restrictions
system.switch_cpus.itb.stage2_mmu.stage2_tlb.readAccesses            0                       # DTB read accesses
system.switch_cpus.itb.stage2_mmu.stage2_tlb.writeAccesses            0                       # DTB write accesses
system.switch_cpus.itb.stage2_mmu.stage2_tlb.instAccesses            0                       # ITB inst accesses
system.switch_cpus.itb.stage2_mmu.stage2_tlb.hits            0                       # Total TLB (inst and data) hits
system.switch_cpus.itb.stage2_mmu.stage2_tlb.misses            0                       # Total TLB (inst and data) misses
system.switch_cpus.itb.stage2_mmu.stage2_tlb.accesses            0                       # Total TLB (inst and data) accesses
system.switch_cpus.itb.stage2_mmu.stage2_tlb.walker.walks            0                       # Table walker walks requested
system.switch_cpus.itb.stage2_mmu.stage2_tlb.walker.requestOrigin_Requested::Data            0                       # Table walker requests started/completed, data/inst
system.switch_cpus.itb.stage2_mmu.stage2_tlb.walker.requestOrigin_Requested::Inst            0                       # Table walker requests started/completed, data/inst
system.switch_cpus.itb.stage2_mmu.stage2_tlb.walker.requestOrigin_Requested::total            0                       # Table walker requests started/completed, data/inst
system.switch_cpus.itb.stage2_mmu.stage2_tlb.walker.requestOrigin_Completed::Data            0                       # Table walker requests started/completed, data/inst
system.switch_cpus.itb.stage2_mmu.stage2_tlb.walker.requestOrigin_Completed::Inst            0                       # Table walker requests started/completed, data/inst
system.switch_cpus.itb.stage2_mmu.stage2_tlb.walker.requestOrigin_Completed::total            0                       # Table walker requests started/completed, data/inst
system.switch_cpus.itb.stage2_mmu.stage2_tlb.walker.requestOrigin::total            0                       # Table walker requests started/completed, data/inst
system.switch_cpus.itb.stage2_mmu.stage2_tlb.walker.power_state.pwrStateResidencyTicks::UNDEFINED   3298072800                       # Cumulative time (in ticks) in various power states
system.switch_cpus.itb.walker.walks                 0                       # Table walker walks requested
system.switch_cpus.itb.walker.requestOrigin_Requested::Data            0                       # Table walker requests started/completed, data/inst
system.switch_cpus.itb.walker.requestOrigin_Requested::Inst            0                       # Table walker requests started/completed, data/inst
system.switch_cpus.itb.walker.requestOrigin_Requested::total            0                       # Table walker requests started/completed, data/inst
system.switch_cpus.itb.walker.requestOrigin_Completed::Data            0                       # Table walker requests started/completed, data/inst
system.switch_cpus.itb.walker.requestOrigin_Completed::Inst            0                       # Table walker requests started/completed, data/inst
system.switch_cpus.itb.walker.requestOrigin_Completed::total            0                       # Table walker requests started/completed, data/inst
system.switch_cpus.itb.walker.requestOrigin::total            0                       # Table walker requests started/completed, data/inst
system.switch_cpus.itb.walker.power_state.pwrStateResidencyTicks::UNDEFINED   3298072800                       # Cumulative time (in ticks) in various power states
system.switch_cpus.lsq0.forwLoads             1812004                       # Number of loads that had data forwarded from stores
system.switch_cpus.lsq0.squashedLoads          826614                       # Number of loads squashed
system.switch_cpus.lsq0.ignoredResponses           86                       # Number of memory responses ignored because the instruction is squashed
system.switch_cpus.lsq0.memOrderViolation          528                       # Number of memory ordering violations
system.switch_cpus.lsq0.squashedStores         182293                       # Number of stores squashed
system.switch_cpus.lsq0.rescheduledLoads            3                       # Number of loads that were rescheduled
system.switch_cpus.lsq0.blockedByCache           2805                       # Number of times an access to memory failed due to the cache being blocked
system.switch_cpus.power_state.pwrStateResidencyTicks::OFF   3298072800                       # Cumulative time (in ticks) in various power states
system.switch_cpus.rename.squashCycles          24335                       # Number of cycles rename is squashing
system.switch_cpus.rename.idleCycles           966161                       # Number of cycles rename is idle
system.switch_cpus.rename.blockCycles         4522363                       # Number of cycles rename is blocking
system.switch_cpus.rename.serializeStallCycles         2723                       # count of cycles rename stalledfor serializing inst
system.switch_cpus.rename.runCycles           1184029                       # Number of cycles rename is running
system.switch_cpus.rename.unblockCycles       1542094                       # Number of cycles rename is unblocking
system.switch_cpus.rename.renamedInsts       12009745                       # Number of instructions processed by rename
system.switch_cpus.rename.squashedInsts         41551                       # Number of squashed instructions processed by rename
system.switch_cpus.rename.ROBFullEvents          2120                       # Number of times rename has blocked due to ROB full
system.switch_cpus.rename.IQFullEvents         502166                       # Number of times rename has blocked due to IQ full
system.switch_cpus.rename.SQFullEvents           1274                       # Number of times rename has blocked due to SQ full
system.switch_cpus.rename.fullRegistersEvents      1021355                       # Number of times there has been no free registers
system.switch_cpus.rename.renamedOperands     13887480                       # Number of destination operands rename has renamed
system.switch_cpus.rename.lookups            17182092                       # Number of register rename lookups that rename has made
system.switch_cpus.rename.intLookups         12916723                       # Number of integer rename lookups
system.switch_cpus.rename.vecLookups               87                       # Number of vector rename lookups
system.switch_cpus.rename.committedMaps      11665737                       # Number of HB maps that are committed
system.switch_cpus.rename.undoneMaps          2221694                       # Number of HB maps that are undone due to squashing
system.switch_cpus.rename.serializing             206                       # count of serializing insts renamed
system.switch_cpus.rename.tempSerializing            8                       # count of temporary serializing insts renamed
system.switch_cpus.rename.skidInsts           4257421                       # count of insts added to the skid buffer
system.switch_cpus.rob.reads                 17543059                       # The number of ROB reads
system.switch_cpus.rob.writes                24338055                       # The number of ROB writes
system.switch_cpus.thread_0.numInsts         10000001                       # Number of Instructions committed
system.switch_cpus.thread_0.numOps           10000167                       # Number of Ops committed
system.switch_cpus.thread_0.numMemRefs              0                       # Number of Memory References
system.tol2bus.trans_dist::ReadResp            257742                       # Transaction distribution
system.tol2bus.trans_dist::WritebackDirty       111616                       # Transaction distribution
system.tol2bus.trans_dist::WritebackClean       157595                       # Transaction distribution
system.tol2bus.trans_dist::CleanEvict           23290                       # Transaction distribution
system.tol2bus.trans_dist::HardPFReq            13034                       # Transaction distribution
system.tol2bus.trans_dist::ReadExReq             8629                       # Transaction distribution
system.tol2bus.trans_dist::ReadExResp            8629                       # Transaction distribution
system.tol2bus.trans_dist::ReadCleanReq          1099                       # Transaction distribution
system.tol2bus.trans_dist::ReadSharedReq       256645                       # Transaction distribution
system.tol2bus.pkt_count_system.cpu.icache.mem_side_port::system.l2.cpu_side_port         3280                       # Packet count per connected requestor and responder (bytes)
system.tol2bus.pkt_count_system.cpu.dcache.mem_side_port::system.l2.cpu_side_port       795818                       # Packet count per connected requestor and responder (bytes)
system.tol2bus.pkt_count::total                799098                       # Packet count per connected requestor and responder (bytes)
system.tol2bus.pkt_size_system.cpu.icache.mem_side_port::system.l2.cpu_side_port       279168                       # Cumulative packet size per connected requestor and responder (bytes)
system.tol2bus.pkt_size_system.cpu.dcache.mem_side_port::system.l2.cpu_side_port     67909632                       # Cumulative packet size per connected requestor and responder (bytes)
system.tol2bus.pkt_size::total               68188800                       # Cumulative packet size per connected requestor and responder (bytes)
system.tol2bus.snoops                           39181                       # Total snoops (count)
system.tol2bus.snoopTraffic                    365696                       # Total snoop traffic (bytes)
system.tol2bus.snoop_fanout::samples           305554                       # Request fanout histogram
system.tol2bus.snoop_fanout::mean            0.001024                       # Request fanout histogram
system.tol2bus.snoop_fanout::stdev           0.031989                       # Request fanout histogram
system.tol2bus.snoop_fanout::underflows             0      0.00%      0.00% # Request fanout histogram
system.tol2bus.snoop_fanout::0                 305241     99.90%     99.90% # Request fanout histogram
system.tol2bus.snoop_fanout::1                    313      0.10%    100.00% # Request fanout histogram
system.tol2bus.snoop_fanout::2                      0      0.00%    100.00% # Request fanout histogram
system.tol2bus.snoop_fanout::3                      0      0.00%    100.00% # Request fanout histogram
system.tol2bus.snoop_fanout::4                      0      0.00%    100.00% # Request fanout histogram
system.tol2bus.snoop_fanout::overflows              0      0.00%    100.00% # Request fanout histogram
system.tol2bus.snoop_fanout::min_value              0                       # Request fanout histogram
system.tol2bus.snoop_fanout::max_value              1                       # Request fanout histogram
system.tol2bus.snoop_fanout::total             305554                       # Request fanout histogram
system.tol2bus.power_state.pwrStateResidencyTicks::UNDEFINED   3298072800                       # Cumulative time (in ticks) in various power states
system.tol2bus.reqLayer0.occupancy          639257200                       # Layer occupancy (ticks)
system.tol2bus.reqLayer0.utilization             19.4                       # Layer utilization (%)
system.tol2bus.respLayer0.occupancy           2198000                       # Layer occupancy (ticks)
system.tol2bus.respLayer0.utilization             0.1                       # Layer utilization (%)
system.tol2bus.respLayer1.occupancy         530545995                       # Layer occupancy (ticks)
system.tol2bus.respLayer1.utilization            16.1                       # Layer utilization (%)
system.voltage_domain.voltage                       1                       # Voltage in Volts

---------- End Simulation Statistics   ----------
