
---------- Begin Simulation Statistics ----------
final_tick                               969769634000                       # Number of ticks from beginning of simulation (restored from checkpoints and never reset)
host_inst_rate                                 414272                       # Simulator instruction rate (inst/s)
host_mem_usage                               16970380                       # Number of bytes of host memory used
host_op_rate                                   428954                       # Simulator op (including micro ops) rate (op/s)
host_seconds                                  4462.44                       # Real time elapsed on the host
host_tick_rate                              217318458                       # Simulator tick rate (ticks/s)
sim_freq                                 1000000000000                       # Frequency of simulated ticks
sim_insts                                  1848663362                       # Number of instructions simulated
sim_ops                                    1914179944                       # Number of ops (including micro ops) simulated
sim_seconds                                  0.969770                       # Number of seconds simulated
sim_ticks                                969769634000                       # Number of ticks simulated
system.cpu.cc_regfile_reads                 660025043                       # number of cc regfile reads
system.cpu.cc_regfile_writes                660534454                       # number of cc regfile writes
system.cpu.committedInsts                  1848663362                       # Number of Instructions Simulated
system.cpu.committedOps                    1914179944                       # Number of Ops (including micro ops) Simulated
system.cpu.cpi                               0.524579                       # CPI: Cycles Per Instruction
system.cpu.cpi_total                         0.524579                       # CPI: Total CPI of All Threads
system.cpu.idleCycles                           34470                       # Total number of cycles that the CPU has spent unscheduled due to idling
system.cpu.iew.branchMispredicts              4318503                       # Number of branch mispredicts detected at execute
system.cpu.iew.exec_branches                263379727                       # Number of branches executed
system.cpu.iew.exec_nop                       2571689                       # number of nop insts executed
system.cpu.iew.exec_rate                     2.116020                       # Inst execution rate
system.cpu.iew.exec_refs                    968211392                       # number of memory reference insts executed
system.cpu.iew.exec_stores                  204026121                       # Number of stores executed
system.cpu.iew.exec_swp                             0                       # number of swp insts executed
system.cpu.iew.iewBlockCycles                32949977                       # Number of cycles IEW is blocking
system.cpu.iew.iewDispLoadInsts             777711148                       # Number of dispatched load instructions
system.cpu.iew.iewDispNonSpecInsts                838                       # Number of dispatched non-speculative instructions
system.cpu.iew.iewDispSquashedInsts            145882                       # Number of squashed instructions skipped by dispatch
system.cpu.iew.iewDispStoreInsts            216123710                       # Number of dispatched store instructions
system.cpu.iew.iewDispatchedInsts          2110581191                       # Number of instructions dispatched to IQ
system.cpu.iew.iewExecLoadInsts             764185271                       # Number of load instructions executed
system.cpu.iew.iewExecSquashedInsts           6336257                       # Number of squashed instructions skipped in execute
system.cpu.iew.iewExecutedInsts            2052052343                       # Number of executed instructions
system.cpu.iew.iewIQFullEvents                 380179                       # Number of times the IQ has become full, causing a stall
system.cpu.iew.iewIdleCycles                        0                       # Number of cycles IEW is idle
system.cpu.iew.iewLSQFullEvents              43072601                       # Number of times the LSQ has become full, causing a stall
system.cpu.iew.iewSquashCycles                4308405                       # Number of cycles IEW is squashing
system.cpu.iew.iewUnblockCycles              43519510                       # Number of cycles IEW is unblocking
system.cpu.iew.memOrderViolationEvents         105587                       # Number of memory order violations
system.cpu.iew.predictedNotTakenIncorrect      1392234                       # Number of branches that were predicted not taken incorrectly
system.cpu.iew.predictedTakenIncorrect        2926269                       # Number of branches that were predicted taken incorrectly
system.cpu.iew.wb_consumers                2112047035                       # num instructions consuming a value
system.cpu.iew.wb_count                    2038161640                       # cumulative count of insts written-back
system.cpu.iew.wb_fanout                     0.718141                       # average fanout of values written-back
system.cpu.iew.wb_producers                1516748047                       # num instructions producing a value
system.cpu.iew.wb_rate                       2.101697                       # insts written-back per cycle
system.cpu.iew.wb_sent                     2040412208                       # cumulative count of insts sent to commit
system.cpu.int_regfile_reads               2308807846                       # number of integer regfile reads
system.cpu.int_regfile_writes              1609504514                       # number of integer regfile writes
system.cpu.ipc                               1.906291                       # IPC: Instructions Per Cycle
system.cpu.ipc_total                         1.906291                       # IPC: Total IPC of All Threads
system.cpu.iq.FU_type_0::No_OpClass               191      0.00%      0.00% # Type of FU issued
system.cpu.iq.FU_type_0::IntAlu            1063307741     51.66%     51.66% # Type of FU issued
system.cpu.iq.FU_type_0::IntMult             22132997      1.08%     52.73% # Type of FU issued
system.cpu.iq.FU_type_0::IntDiv                  2508      0.00%     52.73% # Type of FU issued
system.cpu.iq.FU_type_0::FloatAdd                9313      0.00%     52.73% # Type of FU issued
system.cpu.iq.FU_type_0::FloatCmp                9788      0.00%     52.73% # Type of FU issued
system.cpu.iq.FU_type_0::FloatCvt               24023      0.00%     52.73% # Type of FU issued
system.cpu.iq.FU_type_0::FloatMult              23962      0.00%     52.74% # Type of FU issued
system.cpu.iq.FU_type_0::FloatMultAcc               0      0.00%     52.74% # Type of FU issued
system.cpu.iq.FU_type_0::FloatDiv                 109      0.00%     52.74% # Type of FU issued
system.cpu.iq.FU_type_0::FloatMisc              32291      0.00%     52.74% # Type of FU issued
system.cpu.iq.FU_type_0::FloatSqrt                  6      0.00%     52.74% # Type of FU issued
system.cpu.iq.FU_type_0::SimdAdd                  252      0.00%     52.74% # Type of FU issued
system.cpu.iq.FU_type_0::SimdAddAcc                 0      0.00%     52.74% # Type of FU issued
system.cpu.iq.FU_type_0::SimdAlu                 1597      0.00%     52.74% # Type of FU issued
system.cpu.iq.FU_type_0::SimdCmp                  419      0.00%     52.74% # Type of FU issued
system.cpu.iq.FU_type_0::SimdCvt                 8236      0.00%     52.74% # Type of FU issued
system.cpu.iq.FU_type_0::SimdMisc                 321      0.00%     52.74% # Type of FU issued
system.cpu.iq.FU_type_0::SimdMult                   0      0.00%     52.74% # Type of FU issued
system.cpu.iq.FU_type_0::SimdMultAcc                0      0.00%     52.74% # Type of FU issued
system.cpu.iq.FU_type_0::SimdShift                  0      0.00%     52.74% # Type of FU issued
system.cpu.iq.FU_type_0::SimdShiftAcc               0      0.00%     52.74% # Type of FU issued
system.cpu.iq.FU_type_0::SimdDiv                    0      0.00%     52.74% # Type of FU issued
system.cpu.iq.FU_type_0::SimdSqrt                   0      0.00%     52.74% # Type of FU issued
system.cpu.iq.FU_type_0::SimdFloatAdd               0      0.00%     52.74% # Type of FU issued
system.cpu.iq.FU_type_0::SimdFloatAlu               0      0.00%     52.74% # Type of FU issued
system.cpu.iq.FU_type_0::SimdFloatCmp               0      0.00%     52.74% # Type of FU issued
system.cpu.iq.FU_type_0::SimdFloatCvt               0      0.00%     52.74% # Type of FU issued
system.cpu.iq.FU_type_0::SimdFloatDiv               0      0.00%     52.74% # Type of FU issued
system.cpu.iq.FU_type_0::SimdFloatMisc              0      0.00%     52.74% # Type of FU issued
system.cpu.iq.FU_type_0::SimdFloatMult              0      0.00%     52.74% # Type of FU issued
system.cpu.iq.FU_type_0::SimdFloatMultAcc            0      0.00%     52.74% # Type of FU issued
system.cpu.iq.FU_type_0::SimdFloatSqrt              0      0.00%     52.74% # Type of FU issued
system.cpu.iq.FU_type_0::SimdReduceAdd              0      0.00%     52.74% # Type of FU issued
system.cpu.iq.FU_type_0::SimdReduceAlu              0      0.00%     52.74% # Type of FU issued
system.cpu.iq.FU_type_0::SimdReduceCmp              0      0.00%     52.74% # Type of FU issued
system.cpu.iq.FU_type_0::SimdFloatReduceAdd            0      0.00%     52.74% # Type of FU issued
system.cpu.iq.FU_type_0::SimdFloatReduceCmp            0      0.00%     52.74% # Type of FU issued
system.cpu.iq.FU_type_0::SimdAes                    0      0.00%     52.74% # Type of FU issued
system.cpu.iq.FU_type_0::SimdAesMix                 0      0.00%     52.74% # Type of FU issued
system.cpu.iq.FU_type_0::SimdSha1Hash               0      0.00%     52.74% # Type of FU issued
system.cpu.iq.FU_type_0::SimdSha1Hash2              0      0.00%     52.74% # Type of FU issued
system.cpu.iq.FU_type_0::SimdSha256Hash             0      0.00%     52.74% # Type of FU issued
system.cpu.iq.FU_type_0::SimdSha256Hash2            0      0.00%     52.74% # Type of FU issued
system.cpu.iq.FU_type_0::SimdShaSigma2              0      0.00%     52.74% # Type of FU issued
system.cpu.iq.FU_type_0::SimdShaSigma3              0      0.00%     52.74% # Type of FU issued
system.cpu.iq.FU_type_0::SimdPredAlu                0      0.00%     52.74% # Type of FU issued
system.cpu.iq.FU_type_0::MemRead            767089553     37.27%     90.00% # Type of FU issued
system.cpu.iq.FU_type_0::MemWrite           205745293     10.00%    100.00% # Type of FU issued
system.cpu.iq.FU_type_0::FloatMemRead               0      0.00%    100.00% # Type of FU issued
system.cpu.iq.FU_type_0::FloatMemWrite              0      0.00%    100.00% # Type of FU issued
system.cpu.iq.FU_type_0::IprAccess                  0      0.00%    100.00% # Type of FU issued
system.cpu.iq.FU_type_0::InstPrefetch               0      0.00%    100.00% # Type of FU issued
system.cpu.iq.FU_type_0::total             2058388600                       # Type of FU issued
system.cpu.iq.fp_alu_accesses                       0                       # Number of floating point alu accesses
system.cpu.iq.fp_inst_queue_reads                   0                       # Number of floating instruction queue reads
system.cpu.iq.fp_inst_queue_wakeup_accesses            0                       # Number of floating instruction queue wakeup accesses
system.cpu.iq.fp_inst_queue_writes                  0                       # Number of floating instruction queue writes
system.cpu.iq.fu_busy_cnt                    49070809                       # FU busy when requested
system.cpu.iq.fu_busy_rate                   0.023839                       # FU busy rate (busy events/executed inst)
system.cpu.iq.fu_full::No_OpClass                   0      0.00%      0.00% # attempts to use FU when none available
system.cpu.iq.fu_full::IntAlu                 5753043     11.72%     11.72% # attempts to use FU when none available
system.cpu.iq.fu_full::IntMult                   3089      0.01%     11.73% # attempts to use FU when none available
system.cpu.iq.fu_full::IntDiv                       0      0.00%     11.73% # attempts to use FU when none available
system.cpu.iq.fu_full::FloatAdd                     0      0.00%     11.73% # attempts to use FU when none available
system.cpu.iq.fu_full::FloatCmp                     0      0.00%     11.73% # attempts to use FU when none available
system.cpu.iq.fu_full::FloatCvt                     0      0.00%     11.73% # attempts to use FU when none available
system.cpu.iq.fu_full::FloatMult                    0      0.00%     11.73% # attempts to use FU when none available
system.cpu.iq.fu_full::FloatMultAcc                 0      0.00%     11.73% # attempts to use FU when none available
system.cpu.iq.fu_full::FloatDiv                    77      0.00%     11.73% # attempts to use FU when none available
system.cpu.iq.fu_full::FloatMisc                   52      0.00%     11.73% # attempts to use FU when none available
system.cpu.iq.fu_full::FloatSqrt                    0      0.00%     11.73% # attempts to use FU when none available
system.cpu.iq.fu_full::SimdAdd                      0      0.00%     11.73% # attempts to use FU when none available
system.cpu.iq.fu_full::SimdAddAcc                   0      0.00%     11.73% # attempts to use FU when none available
system.cpu.iq.fu_full::SimdAlu                      2      0.00%     11.73% # attempts to use FU when none available
system.cpu.iq.fu_full::SimdCmp                     11      0.00%     11.73% # attempts to use FU when none available
system.cpu.iq.fu_full::SimdCvt                      0      0.00%     11.73% # attempts to use FU when none available
system.cpu.iq.fu_full::SimdMisc                     0      0.00%     11.73% # attempts to use FU when none available
system.cpu.iq.fu_full::SimdMult                     0      0.00%     11.73% # attempts to use FU when none available
system.cpu.iq.fu_full::SimdMultAcc                  0      0.00%     11.73% # attempts to use FU when none available
system.cpu.iq.fu_full::SimdShift                    0      0.00%     11.73% # attempts to use FU when none available
system.cpu.iq.fu_full::SimdShiftAcc                 0      0.00%     11.73% # attempts to use FU when none available
system.cpu.iq.fu_full::SimdDiv                      0      0.00%     11.73% # attempts to use FU when none available
system.cpu.iq.fu_full::SimdSqrt                     0      0.00%     11.73% # attempts to use FU when none available
system.cpu.iq.fu_full::SimdFloatAdd                 0      0.00%     11.73% # attempts to use FU when none available
system.cpu.iq.fu_full::SimdFloatAlu                 0      0.00%     11.73% # attempts to use FU when none available
system.cpu.iq.fu_full::SimdFloatCmp                 0      0.00%     11.73% # attempts to use FU when none available
system.cpu.iq.fu_full::SimdFloatCvt                 0      0.00%     11.73% # attempts to use FU when none available
system.cpu.iq.fu_full::SimdFloatDiv                 0      0.00%     11.73% # attempts to use FU when none available
system.cpu.iq.fu_full::SimdFloatMisc                0      0.00%     11.73% # attempts to use FU when none available
system.cpu.iq.fu_full::SimdFloatMult                0      0.00%     11.73% # attempts to use FU when none available
system.cpu.iq.fu_full::SimdFloatMultAcc             0      0.00%     11.73% # attempts to use FU when none available
system.cpu.iq.fu_full::SimdFloatSqrt                0      0.00%     11.73% # attempts to use FU when none available
system.cpu.iq.fu_full::SimdReduceAdd                0      0.00%     11.73% # attempts to use FU when none available
system.cpu.iq.fu_full::SimdReduceAlu                0      0.00%     11.73% # attempts to use FU when none available
system.cpu.iq.fu_full::SimdReduceCmp                0      0.00%     11.73% # attempts to use FU when none available
system.cpu.iq.fu_full::SimdFloatReduceAdd            0      0.00%     11.73% # attempts to use FU when none available
system.cpu.iq.fu_full::SimdFloatReduceCmp            0      0.00%     11.73% # attempts to use FU when none available
system.cpu.iq.fu_full::SimdAes                      0      0.00%     11.73% # attempts to use FU when none available
system.cpu.iq.fu_full::SimdAesMix                   0      0.00%     11.73% # attempts to use FU when none available
system.cpu.iq.fu_full::SimdSha1Hash                 0      0.00%     11.73% # attempts to use FU when none available
system.cpu.iq.fu_full::SimdSha1Hash2                0      0.00%     11.73% # attempts to use FU when none available
system.cpu.iq.fu_full::SimdSha256Hash               0      0.00%     11.73% # attempts to use FU when none available
system.cpu.iq.fu_full::SimdSha256Hash2              0      0.00%     11.73% # attempts to use FU when none available
system.cpu.iq.fu_full::SimdShaSigma2                0      0.00%     11.73% # attempts to use FU when none available
system.cpu.iq.fu_full::SimdShaSigma3                0      0.00%     11.73% # attempts to use FU when none available
system.cpu.iq.fu_full::SimdPredAlu                  0      0.00%     11.73% # attempts to use FU when none available
system.cpu.iq.fu_full::MemRead               36984945     75.37%     87.10% # attempts to use FU when none available
system.cpu.iq.fu_full::MemWrite               6329590     12.90%    100.00% # attempts to use FU when none available
system.cpu.iq.fu_full::FloatMemRead                 0      0.00%    100.00% # attempts to use FU when none available
system.cpu.iq.fu_full::FloatMemWrite                0      0.00%    100.00% # attempts to use FU when none available
system.cpu.iq.fu_full::IprAccess                    0      0.00%    100.00% # attempts to use FU when none available
system.cpu.iq.fu_full::InstPrefetch                 0      0.00%    100.00% # attempts to use FU when none available
system.cpu.iq.int_alu_accesses             2107286385                       # Number of integer alu accesses
system.cpu.iq.int_inst_queue_reads         5135528991                       # Number of integer instruction queue reads
system.cpu.iq.int_inst_queue_wakeup_accesses   2037991112                       # Number of integer instruction queue wakeup accesses
system.cpu.iq.int_inst_queue_writes        2301747951                       # Number of integer instruction queue writes
system.cpu.iq.iqInstsAdded                 2108008660                       # Number of instructions added to the IQ (excludes non-spec)
system.cpu.iq.iqInstsIssued                2058388600                       # Number of instructions issued
system.cpu.iq.iqNonSpecInstsAdded                 842                       # Number of non-speculative instructions added to the IQ
system.cpu.iq.iqSquashedInstsExamined       193829557                       # Number of squashed instructions iterated over during squash; mainly for profiling
system.cpu.iq.iqSquashedInstsIssued            291330                       # Number of squashed instructions issued
system.cpu.iq.iqSquashedNonSpecRemoved            390                       # Number of squashed non-spec instructions that were removed
system.cpu.iq.iqSquashedOperandsExamined    108213605                       # Number of squashed operands that are examined and possibly removed from graph
system.cpu.iq.issued_per_cycle::samples     969735166                       # Number of insts issued each cycle
system.cpu.iq.issued_per_cycle::mean         2.122630                       # Number of insts issued each cycle
system.cpu.iq.issued_per_cycle::stdev        1.968930                       # Number of insts issued each cycle
system.cpu.iq.issued_per_cycle::underflows            0      0.00%      0.00% # Number of insts issued each cycle
system.cpu.iq.issued_per_cycle::0           294766782     30.40%     30.40% # Number of insts issued each cycle
system.cpu.iq.issued_per_cycle::1           148652781     15.33%     45.73% # Number of insts issued each cycle
system.cpu.iq.issued_per_cycle::2           137329715     14.16%     59.89% # Number of insts issued each cycle
system.cpu.iq.issued_per_cycle::3           134764570     13.90%     73.78% # Number of insts issued each cycle
system.cpu.iq.issued_per_cycle::4           122796149     12.66%     86.45% # Number of insts issued each cycle
system.cpu.iq.issued_per_cycle::5            73406494      7.57%     94.02% # Number of insts issued each cycle
system.cpu.iq.issued_per_cycle::6            39180514      4.04%     98.06% # Number of insts issued each cycle
system.cpu.iq.issued_per_cycle::7            13222759      1.36%     99.42% # Number of insts issued each cycle
system.cpu.iq.issued_per_cycle::8             5615402      0.58%    100.00% # Number of insts issued each cycle
system.cpu.iq.issued_per_cycle::overflows            0      0.00%    100.00% # Number of insts issued each cycle
system.cpu.iq.issued_per_cycle::min_value            0                       # Number of insts issued each cycle
system.cpu.iq.issued_per_cycle::max_value            8                       # Number of insts issued each cycle
system.cpu.iq.issued_per_cycle::total       969735166                       # Number of insts issued each cycle
system.cpu.iq.rate                           2.122554                       # Inst issue rate
system.cpu.iq.vec_alu_accesses                 172833                       # Number of vector alu accesses
system.cpu.iq.vec_inst_queue_reads             345514                       # Number of vector instruction queue reads
system.cpu.iq.vec_inst_queue_wakeup_accesses       170528                       # Number of vector instruction queue wakeup accesses
system.cpu.iq.vec_inst_queue_writes            194289                       # Number of vector instruction queue writes
system.cpu.memDep0.conflictingLoads         258808193                       # Number of conflicting loads.
system.cpu.memDep0.conflictingStores         45995214                       # Number of conflicting stores.
system.cpu.memDep0.insertedLoads            777711148                       # Number of loads inserted to the mem dependence unit.
system.cpu.memDep0.insertedStores           216123710                       # Number of stores inserted to the mem dependence unit.
system.cpu.misc_regfile_reads              4414951976                       # number of misc regfile reads
system.cpu.misc_regfile_writes                  68775                       # number of misc regfile writes
system.cpu.numCycles                        969769636                       # number of cpu cycles simulated
system.cpu.numWorkItemsCompleted                    0                       # number of work items this cpu completed
system.cpu.numWorkItemsStarted                      0                       # number of work items this cpu started
system.cpu.timesIdled                             485                       # Number of times that the entire CPU went into an idle state and unscheduled itself
system.cpu.vec_regfile_reads                   136476                       # number of vector regfile reads
system.cpu.vec_regfile_writes                  125929                       # number of vector regfile writes
system.cpu.workload.numSyscalls                   278                       # Number of system calls
system.membus.snoop_filter.hit_multi_requests            0                       # Number of requests hitting in the snoop filter with multiple (>1) holders of the requested data.
system.membus.snoop_filter.hit_multi_snoops            0                       # Number of snoops hitting in the snoop filter with multiple (>1) holders of the requested data.
system.membus.snoop_filter.hit_single_requests      1763409                       # Number of requests hitting in the snoop filter with a single holder of the requested data.
system.membus.snoop_filter.hit_single_snoops            0                       # Number of snoops hitting in the snoop filter with a single holder of the requested data.
system.membus.snoop_filter.tot_requests       3535132                       # Total number of requests made to the snoop filter.
system.membus.snoop_filter.tot_snoops               0                       # Total number of snoops made to the snoop filter.
system.tol2bus.snoop_filter.hit_multi_requests           85                       # Number of requests hitting in the snoop filter with multiple (>1) holders of the requested data.
system.tol2bus.snoop_filter.hit_multi_snoops            0                       # Number of snoops hitting in the snoop filter with multiple (>1) holders of the requested data.
system.tol2bus.snoop_filter.hit_single_requests     23909805                       # Number of requests hitting in the snoop filter with a single holder of the requested data.
system.tol2bus.snoop_filter.hit_single_snoops          899                       # Number of snoops hitting in the snoop filter with a single holder of the requested data.
system.tol2bus.snoop_filter.tot_requests     47820367                       # Total number of requests made to the snoop filter.
system.tol2bus.snoop_filter.tot_snoops            899                       # Total number of snoops made to the snoop filter.
system.clk_domain.clock                          1000                       # Clock period in ticks
system.cpu.branchPred.lookups               285334203                       # Number of BP lookups
system.cpu.branchPred.condPredicted         234593822                       # Number of conditional branches predicted
system.cpu.branchPred.condIncorrect           4218745                       # Number of conditional branches incorrect
system.cpu.branchPred.BTBLookups            180140185                       # Number of BTB lookups
system.cpu.branchPred.BTBHits               180121023                       # Number of BTB hits
system.cpu.branchPred.BTBHitPct             99.989363                       # BTB Hit Percentage
system.cpu.branchPred.RASUsed                19979471                       # Number of times the RAS was used to get a target.
system.cpu.branchPred.RASIncorrect                 20                       # Number of incorrect RAS predictions.
system.cpu.branchPred.indirectLookups         2292364                       # Number of indirect predictor lookups.
system.cpu.branchPred.indirectHits            2269852                       # Number of indirect target hits.
system.cpu.branchPred.indirectMisses            22512                       # Number of indirect misses.
system.cpu.branchPred.indirectMispredicted          281                       # Number of mispredicted indirect branches.
system.cpu.commit.commitSquashedInsts       194165318                       # The number of squashed insts skipped by commit
system.cpu.commit.commitNonSpecStalls             452                       # The number of times commit has been forced to stall to communicate backwards
system.cpu.commit.branchMispredicts           4217568                       # The number of times a branch was mispredicted
system.cpu.commit.numCommittedDist::samples    942641040                       # Number of insts commited each cycle
system.cpu.commit.numCommittedDist::mean     2.033288                       # Number of insts commited each cycle
system.cpu.commit.numCommittedDist::stdev     2.962475                       # Number of insts commited each cycle
system.cpu.commit.numCommittedDist::underflows            0      0.00%      0.00% # Number of insts commited each cycle
system.cpu.commit.numCommittedDist::0       452839118     48.04%     48.04% # Number of insts commited each cycle
system.cpu.commit.numCommittedDist::1       210924669     22.38%     70.42% # Number of insts commited each cycle
system.cpu.commit.numCommittedDist::2        38067790      4.04%     74.45% # Number of insts commited each cycle
system.cpu.commit.numCommittedDist::3        22655340      2.40%     76.86% # Number of insts commited each cycle
system.cpu.commit.numCommittedDist::4        22276102      2.36%     79.22% # Number of insts commited each cycle
system.cpu.commit.numCommittedDist::5        17670827      1.87%     81.09% # Number of insts commited each cycle
system.cpu.commit.numCommittedDist::6        10831513      1.15%     82.24% # Number of insts commited each cycle
system.cpu.commit.numCommittedDist::7        19818277      2.10%     84.35% # Number of insts commited each cycle
system.cpu.commit.numCommittedDist::8       147557404     15.65%    100.00% # Number of insts commited each cycle
system.cpu.commit.numCommittedDist::overflows            0      0.00%    100.00% # Number of insts commited each cycle
system.cpu.commit.numCommittedDist::min_value            0                       # Number of insts commited each cycle
system.cpu.commit.numCommittedDist::max_value            8                       # Number of insts commited each cycle
system.cpu.commit.numCommittedDist::total    942641040                       # Number of insts commited each cycle
system.cpu.commit.instsCommitted           1851144479                       # Number of instructions committed
system.cpu.commit.opsCommitted             1916661061                       # Number of ops (including micro ops) committed
system.cpu.commit.memRefs                   899265037                       # Number of memory references committed
system.cpu.commit.loads                     712912497                       # Number of loads committed
system.cpu.commit.amos                             82                       # Number of atomic instructions committed
system.cpu.commit.membars                          87                       # Number of memory barriers committed
system.cpu.commit.branches                  249057423                       # Number of branches committed
system.cpu.commit.vector                       155697                       # Number of committed Vector instructions.
system.cpu.commit.floating                          0                       # Number of committed floating point instructions.
system.cpu.commit.integer                  1699958033                       # Number of committed integer instructions.
system.cpu.commit.functionCalls              16985687                       # Number of function calls committed.
system.cpu.commit.committedInstType_0::No_OpClass          180      0.00%      0.00% # Class of committed instruction
system.cpu.commit.committedInstType_0::IntAlu    996299104     51.98%     51.98% # Class of committed instruction
system.cpu.commit.committedInstType_0::IntMult     20993240      1.10%     53.08% # Class of committed instruction
system.cpu.commit.committedInstType_0::IntDiv         2217      0.00%     53.08% # Class of committed instruction
system.cpu.commit.committedInstType_0::FloatAdd         9124      0.00%     53.08% # Class of committed instruction
system.cpu.commit.committedInstType_0::FloatCmp         8067      0.00%     53.08% # Class of committed instruction
system.cpu.commit.committedInstType_0::FloatCvt        22346      0.00%     53.08% # Class of committed instruction
system.cpu.commit.committedInstType_0::FloatMult        22397      0.00%     53.08% # Class of committed instruction
system.cpu.commit.committedInstType_0::FloatMultAcc            0      0.00%     53.08% # Class of committed instruction
system.cpu.commit.committedInstType_0::FloatDiv           95      0.00%     53.08% # Class of committed instruction
system.cpu.commit.committedInstType_0::FloatMisc        30287      0.00%     53.08% # Class of committed instruction
system.cpu.commit.committedInstType_0::FloatSqrt            6      0.00%     53.08% # Class of committed instruction
system.cpu.commit.committedInstType_0::SimdAdd          220      0.00%     53.08% # Class of committed instruction
system.cpu.commit.committedInstType_0::SimdAddAcc            0      0.00%     53.08% # Class of committed instruction
system.cpu.commit.committedInstType_0::SimdAlu         1548      0.00%     53.08% # Class of committed instruction
system.cpu.commit.committedInstType_0::SimdCmp          376      0.00%     53.08% # Class of committed instruction
system.cpu.commit.committedInstType_0::SimdCvt         6531      0.00%     53.08% # Class of committed instruction
system.cpu.commit.committedInstType_0::SimdMisc          286      0.00%     53.08% # Class of committed instruction
system.cpu.commit.committedInstType_0::SimdMult            0      0.00%     53.08% # Class of committed instruction
system.cpu.commit.committedInstType_0::SimdMultAcc            0      0.00%     53.08% # Class of committed instruction
system.cpu.commit.committedInstType_0::SimdShift            0      0.00%     53.08% # Class of committed instruction
system.cpu.commit.committedInstType_0::SimdShiftAcc            0      0.00%     53.08% # Class of committed instruction
system.cpu.commit.committedInstType_0::SimdDiv            0      0.00%     53.08% # Class of committed instruction
system.cpu.commit.committedInstType_0::SimdSqrt            0      0.00%     53.08% # Class of committed instruction
system.cpu.commit.committedInstType_0::SimdFloatAdd            0      0.00%     53.08% # Class of committed instruction
system.cpu.commit.committedInstType_0::SimdFloatAlu            0      0.00%     53.08% # Class of committed instruction
system.cpu.commit.committedInstType_0::SimdFloatCmp            0      0.00%     53.08% # Class of committed instruction
system.cpu.commit.committedInstType_0::SimdFloatCvt            0      0.00%     53.08% # Class of committed instruction
system.cpu.commit.committedInstType_0::SimdFloatDiv            0      0.00%     53.08% # Class of committed instruction
system.cpu.commit.committedInstType_0::SimdFloatMisc            0      0.00%     53.08% # Class of committed instruction
system.cpu.commit.committedInstType_0::SimdFloatMult            0      0.00%     53.08% # Class of committed instruction
system.cpu.commit.committedInstType_0::SimdFloatMultAcc            0      0.00%     53.08% # Class of committed instruction
system.cpu.commit.committedInstType_0::SimdFloatSqrt            0      0.00%     53.08% # Class of committed instruction
system.cpu.commit.committedInstType_0::SimdReduceAdd            0      0.00%     53.08% # Class of committed instruction
system.cpu.commit.committedInstType_0::SimdReduceAlu            0      0.00%     53.08% # Class of committed instruction
system.cpu.commit.committedInstType_0::SimdReduceCmp            0      0.00%     53.08% # Class of committed instruction
system.cpu.commit.committedInstType_0::SimdFloatReduceAdd            0      0.00%     53.08% # Class of committed instruction
system.cpu.commit.committedInstType_0::SimdFloatReduceCmp            0      0.00%     53.08% # Class of committed instruction
system.cpu.commit.committedInstType_0::SimdAes            0      0.00%     53.08% # Class of committed instruction
system.cpu.commit.committedInstType_0::SimdAesMix            0      0.00%     53.08% # Class of committed instruction
system.cpu.commit.committedInstType_0::SimdSha1Hash            0      0.00%     53.08% # Class of committed instruction
system.cpu.commit.committedInstType_0::SimdSha1Hash2            0      0.00%     53.08% # Class of committed instruction
system.cpu.commit.committedInstType_0::SimdSha256Hash            0      0.00%     53.08% # Class of committed instruction
system.cpu.commit.committedInstType_0::SimdSha256Hash2            0      0.00%     53.08% # Class of committed instruction
system.cpu.commit.committedInstType_0::SimdShaSigma2            0      0.00%     53.08% # Class of committed instruction
system.cpu.commit.committedInstType_0::SimdShaSigma3            0      0.00%     53.08% # Class of committed instruction
system.cpu.commit.committedInstType_0::SimdPredAlu            0      0.00%     53.08% # Class of committed instruction
system.cpu.commit.committedInstType_0::MemRead    712912497     37.20%     90.28% # Class of committed instruction
system.cpu.commit.committedInstType_0::MemWrite    186352540      9.72%    100.00% # Class of committed instruction
system.cpu.commit.committedInstType_0::FloatMemRead            0      0.00%    100.00% # Class of committed instruction
system.cpu.commit.committedInstType_0::FloatMemWrite            0      0.00%    100.00% # Class of committed instruction
system.cpu.commit.committedInstType_0::IprAccess            0      0.00%    100.00% # Class of committed instruction
system.cpu.commit.committedInstType_0::InstPrefetch            0      0.00%    100.00% # Class of committed instruction
system.cpu.commit.committedInstType_0::total   1916661061                       # Class of committed instruction
system.cpu.commit.commitEligibleSamples     147557404                       # number cycles where commit BW limit reached
system.cpu.dcache.demand_hits::.cpu.data    613882883                       # number of demand (read+write) hits
system.cpu.dcache.demand_hits::total        613882883                       # number of demand (read+write) hits
system.cpu.dcache.overall_hits::.cpu.data    613882883                       # number of overall hits
system.cpu.dcache.overall_hits::total       613882883                       # number of overall hits
system.cpu.dcache.demand_misses::.cpu.data     47574817                       # number of demand (read+write) misses
system.cpu.dcache.demand_misses::total       47574817                       # number of demand (read+write) misses
system.cpu.dcache.overall_misses::.cpu.data     47574817                       # number of overall misses
system.cpu.dcache.overall_misses::total      47574817                       # number of overall misses
system.cpu.dcache.demand_miss_latency::.cpu.data 1418581764929                       # number of demand (read+write) miss cycles
system.cpu.dcache.demand_miss_latency::total 1418581764929                       # number of demand (read+write) miss cycles
system.cpu.dcache.overall_miss_latency::.cpu.data 1418581764929                       # number of overall miss cycles
system.cpu.dcache.overall_miss_latency::total 1418581764929                       # number of overall miss cycles
system.cpu.dcache.demand_accesses::.cpu.data    661457700                       # number of demand (read+write) accesses
system.cpu.dcache.demand_accesses::total    661457700                       # number of demand (read+write) accesses
system.cpu.dcache.overall_accesses::.cpu.data    661457700                       # number of overall (read+write) accesses
system.cpu.dcache.overall_accesses::total    661457700                       # number of overall (read+write) accesses
system.cpu.dcache.demand_miss_rate::.cpu.data     0.071924                       # miss rate for demand accesses
system.cpu.dcache.demand_miss_rate::total     0.071924                       # miss rate for demand accesses
system.cpu.dcache.overall_miss_rate::.cpu.data     0.071924                       # miss rate for overall accesses
system.cpu.dcache.overall_miss_rate::total     0.071924                       # miss rate for overall accesses
system.cpu.dcache.demand_avg_miss_latency::.cpu.data 29817.913223                       # average overall miss latency
system.cpu.dcache.demand_avg_miss_latency::total 29817.913223                       # average overall miss latency
system.cpu.dcache.overall_avg_miss_latency::.cpu.data 29817.913223                       # average overall miss latency
system.cpu.dcache.overall_avg_miss_latency::total 29817.913223                       # average overall miss latency
system.cpu.dcache.blocked_cycles::no_mshrs     19263778                       # number of cycles access was blocked
system.cpu.dcache.blocked_cycles::no_targets           45                       # number of cycles access was blocked
system.cpu.dcache.blocked::no_mshrs           2071195                       # number of cycles access was blocked
system.cpu.dcache.blocked::no_targets              10                       # number of cycles access was blocked
system.cpu.dcache.avg_blocked_cycles::no_mshrs     9.300804                       # average number of cycles each access was blocked
system.cpu.dcache.avg_blocked_cycles::no_targets     4.500000                       # average number of cycles each access was blocked
system.cpu.dcache.writebacks::.writebacks     21686714                       # number of writebacks
system.cpu.dcache.writebacks::total          21686714                       # number of writebacks
system.cpu.dcache.demand_mshr_hits::.cpu.data     23664974                       # number of demand (read+write) MSHR hits
system.cpu.dcache.demand_mshr_hits::total     23664974                       # number of demand (read+write) MSHR hits
system.cpu.dcache.overall_mshr_hits::.cpu.data     23664974                       # number of overall MSHR hits
system.cpu.dcache.overall_mshr_hits::total     23664974                       # number of overall MSHR hits
system.cpu.dcache.demand_mshr_misses::.cpu.data     23909843                       # number of demand (read+write) MSHR misses
system.cpu.dcache.demand_mshr_misses::total     23909843                       # number of demand (read+write) MSHR misses
system.cpu.dcache.overall_mshr_misses::.cpu.data     23909843                       # number of overall MSHR misses
system.cpu.dcache.overall_mshr_misses::total     23909843                       # number of overall MSHR misses
system.cpu.dcache.demand_mshr_miss_latency::.cpu.data 693810380998                       # number of demand (read+write) MSHR miss cycles
system.cpu.dcache.demand_mshr_miss_latency::total 693810380998                       # number of demand (read+write) MSHR miss cycles
system.cpu.dcache.overall_mshr_miss_latency::.cpu.data 693810380998                       # number of overall MSHR miss cycles
system.cpu.dcache.overall_mshr_miss_latency::total 693810380998                       # number of overall MSHR miss cycles
system.cpu.dcache.demand_mshr_miss_rate::.cpu.data     0.036147                       # mshr miss rate for demand accesses
system.cpu.dcache.demand_mshr_miss_rate::total     0.036147                       # mshr miss rate for demand accesses
system.cpu.dcache.overall_mshr_miss_rate::.cpu.data     0.036147                       # mshr miss rate for overall accesses
system.cpu.dcache.overall_mshr_miss_rate::total     0.036147                       # mshr miss rate for overall accesses
system.cpu.dcache.demand_avg_mshr_miss_latency::.cpu.data 29017.772346                       # average overall mshr miss latency
system.cpu.dcache.demand_avg_mshr_miss_latency::total 29017.772346                       # average overall mshr miss latency
system.cpu.dcache.overall_avg_mshr_miss_latency::.cpu.data 29017.772346                       # average overall mshr miss latency
system.cpu.dcache.overall_avg_mshr_miss_latency::total 29017.772346                       # average overall mshr miss latency
system.cpu.dcache.replacements               23909587                       # number of replacements
system.cpu.dcache.ReadReq_hits::.cpu.data    428999608                       # number of ReadReq hits
system.cpu.dcache.ReadReq_hits::total       428999608                       # number of ReadReq hits
system.cpu.dcache.ReadReq_misses::.cpu.data     46105625                       # number of ReadReq misses
system.cpu.dcache.ReadReq_misses::total      46105625                       # number of ReadReq misses
system.cpu.dcache.ReadReq_miss_latency::.cpu.data 1363619038000                       # number of ReadReq miss cycles
system.cpu.dcache.ReadReq_miss_latency::total 1363619038000                       # number of ReadReq miss cycles
system.cpu.dcache.ReadReq_accesses::.cpu.data    475105233                       # number of ReadReq accesses(hits+misses)
system.cpu.dcache.ReadReq_accesses::total    475105233                       # number of ReadReq accesses(hits+misses)
system.cpu.dcache.ReadReq_miss_rate::.cpu.data     0.097043                       # miss rate for ReadReq accesses
system.cpu.dcache.ReadReq_miss_rate::total     0.097043                       # miss rate for ReadReq accesses
system.cpu.dcache.ReadReq_avg_miss_latency::.cpu.data 29575.979894                       # average ReadReq miss latency
system.cpu.dcache.ReadReq_avg_miss_latency::total 29575.979894                       # average ReadReq miss latency
system.cpu.dcache.ReadReq_mshr_hits::.cpu.data     22978721                       # number of ReadReq MSHR hits
system.cpu.dcache.ReadReq_mshr_hits::total     22978721                       # number of ReadReq MSHR hits
system.cpu.dcache.ReadReq_mshr_misses::.cpu.data     23126904                       # number of ReadReq MSHR misses
system.cpu.dcache.ReadReq_mshr_misses::total     23126904                       # number of ReadReq MSHR misses
system.cpu.dcache.ReadReq_mshr_miss_latency::.cpu.data 670093112000                       # number of ReadReq MSHR miss cycles
system.cpu.dcache.ReadReq_mshr_miss_latency::total 670093112000                       # number of ReadReq MSHR miss cycles
system.cpu.dcache.ReadReq_mshr_miss_rate::.cpu.data     0.048677                       # mshr miss rate for ReadReq accesses
system.cpu.dcache.ReadReq_mshr_miss_rate::total     0.048677                       # mshr miss rate for ReadReq accesses
system.cpu.dcache.ReadReq_avg_mshr_miss_latency::.cpu.data 28974.613809                       # average ReadReq mshr miss latency
system.cpu.dcache.ReadReq_avg_mshr_miss_latency::total 28974.613809                       # average ReadReq mshr miss latency
system.cpu.dcache.WriteReq_hits::.cpu.data    184883275                       # number of WriteReq hits
system.cpu.dcache.WriteReq_hits::total      184883275                       # number of WriteReq hits
system.cpu.dcache.WriteReq_misses::.cpu.data      1469192                       # number of WriteReq misses
system.cpu.dcache.WriteReq_misses::total      1469192                       # number of WriteReq misses
system.cpu.dcache.WriteReq_miss_latency::.cpu.data  54962726929                       # number of WriteReq miss cycles
system.cpu.dcache.WriteReq_miss_latency::total  54962726929                       # number of WriteReq miss cycles
system.cpu.dcache.WriteReq_accesses::.cpu.data    186352467                       # number of WriteReq accesses(hits+misses)
system.cpu.dcache.WriteReq_accesses::total    186352467                       # number of WriteReq accesses(hits+misses)
system.cpu.dcache.WriteReq_miss_rate::.cpu.data     0.007884                       # miss rate for WriteReq accesses
system.cpu.dcache.WriteReq_miss_rate::total     0.007884                       # miss rate for WriteReq accesses
system.cpu.dcache.WriteReq_avg_miss_latency::.cpu.data 37410.173026                       # average WriteReq miss latency
system.cpu.dcache.WriteReq_avg_miss_latency::total 37410.173026                       # average WriteReq miss latency
system.cpu.dcache.WriteReq_mshr_hits::.cpu.data       686253                       # number of WriteReq MSHR hits
system.cpu.dcache.WriteReq_mshr_hits::total       686253                       # number of WriteReq MSHR hits
system.cpu.dcache.WriteReq_mshr_misses::.cpu.data       782939                       # number of WriteReq MSHR misses
system.cpu.dcache.WriteReq_mshr_misses::total       782939                       # number of WriteReq MSHR misses
system.cpu.dcache.WriteReq_mshr_miss_latency::.cpu.data  23717268998                       # number of WriteReq MSHR miss cycles
system.cpu.dcache.WriteReq_mshr_miss_latency::total  23717268998                       # number of WriteReq MSHR miss cycles
system.cpu.dcache.WriteReq_mshr_miss_rate::.cpu.data     0.004201                       # mshr miss rate for WriteReq accesses
system.cpu.dcache.WriteReq_mshr_miss_rate::total     0.004201                       # mshr miss rate for WriteReq accesses
system.cpu.dcache.WriteReq_avg_mshr_miss_latency::.cpu.data 30292.614109                       # average WriteReq mshr miss latency
system.cpu.dcache.WriteReq_avg_mshr_miss_latency::total 30292.614109                       # average WriteReq mshr miss latency
system.cpu.dcache.LoadLockedReq_hits::.cpu.data           20                       # number of LoadLockedReq hits
system.cpu.dcache.LoadLockedReq_hits::total           20                       # number of LoadLockedReq hits
system.cpu.dcache.LoadLockedReq_misses::.cpu.data            1                       # number of LoadLockedReq misses
system.cpu.dcache.LoadLockedReq_misses::total            1                       # number of LoadLockedReq misses
system.cpu.dcache.LoadLockedReq_miss_latency::.cpu.data        97000                       # number of LoadLockedReq miss cycles
system.cpu.dcache.LoadLockedReq_miss_latency::total        97000                       # number of LoadLockedReq miss cycles
system.cpu.dcache.LoadLockedReq_accesses::.cpu.data           21                       # number of LoadLockedReq accesses(hits+misses)
system.cpu.dcache.LoadLockedReq_accesses::total           21                       # number of LoadLockedReq accesses(hits+misses)
system.cpu.dcache.LoadLockedReq_miss_rate::.cpu.data     0.047619                       # miss rate for LoadLockedReq accesses
system.cpu.dcache.LoadLockedReq_miss_rate::total     0.047619                       # miss rate for LoadLockedReq accesses
system.cpu.dcache.LoadLockedReq_avg_miss_latency::.cpu.data        97000                       # average LoadLockedReq miss latency
system.cpu.dcache.LoadLockedReq_avg_miss_latency::total        97000                       # average LoadLockedReq miss latency
system.cpu.dcache.LoadLockedReq_mshr_misses::.cpu.data            1                       # number of LoadLockedReq MSHR misses
system.cpu.dcache.LoadLockedReq_mshr_misses::total            1                       # number of LoadLockedReq MSHR misses
system.cpu.dcache.LoadLockedReq_mshr_miss_latency::.cpu.data        95000                       # number of LoadLockedReq MSHR miss cycles
system.cpu.dcache.LoadLockedReq_mshr_miss_latency::total        95000                       # number of LoadLockedReq MSHR miss cycles
system.cpu.dcache.LoadLockedReq_mshr_miss_rate::.cpu.data     0.047619                       # mshr miss rate for LoadLockedReq accesses
system.cpu.dcache.LoadLockedReq_mshr_miss_rate::total     0.047619                       # mshr miss rate for LoadLockedReq accesses
system.cpu.dcache.LoadLockedReq_avg_mshr_miss_latency::.cpu.data        95000                       # average LoadLockedReq mshr miss latency
system.cpu.dcache.LoadLockedReq_avg_mshr_miss_latency::total        95000                       # average LoadLockedReq mshr miss latency
system.cpu.dcache.StoreCondReq_hits::.cpu.data            4                       # number of StoreCondReq hits
system.cpu.dcache.StoreCondReq_hits::total            4                       # number of StoreCondReq hits
system.cpu.dcache.StoreCondReq_accesses::.cpu.data            4                       # number of StoreCondReq accesses(hits+misses)
system.cpu.dcache.StoreCondReq_accesses::total            4                       # number of StoreCondReq accesses(hits+misses)
system.cpu.dcache.SwapReq_hits::.cpu.data           81                       # number of SwapReq hits
system.cpu.dcache.SwapReq_hits::total              81                       # number of SwapReq hits
system.cpu.dcache.SwapReq_misses::.cpu.data            1                       # number of SwapReq misses
system.cpu.dcache.SwapReq_misses::total             1                       # number of SwapReq misses
system.cpu.dcache.SwapReq_miss_latency::.cpu.data       123000                       # number of SwapReq miss cycles
system.cpu.dcache.SwapReq_miss_latency::total       123000                       # number of SwapReq miss cycles
system.cpu.dcache.SwapReq_accesses::.cpu.data           82                       # number of SwapReq accesses(hits+misses)
system.cpu.dcache.SwapReq_accesses::total           82                       # number of SwapReq accesses(hits+misses)
system.cpu.dcache.SwapReq_miss_rate::.cpu.data     0.012195                       # miss rate for SwapReq accesses
system.cpu.dcache.SwapReq_miss_rate::total     0.012195                       # miss rate for SwapReq accesses
system.cpu.dcache.SwapReq_avg_miss_latency::.cpu.data       123000                       # average SwapReq miss latency
system.cpu.dcache.SwapReq_avg_miss_latency::total       123000                       # average SwapReq miss latency
system.cpu.dcache.SwapReq_mshr_misses::.cpu.data            1                       # number of SwapReq MSHR misses
system.cpu.dcache.SwapReq_mshr_misses::total            1                       # number of SwapReq MSHR misses
system.cpu.dcache.SwapReq_mshr_miss_latency::.cpu.data       121000                       # number of SwapReq MSHR miss cycles
system.cpu.dcache.SwapReq_mshr_miss_latency::total       121000                       # number of SwapReq MSHR miss cycles
system.cpu.dcache.SwapReq_mshr_miss_rate::.cpu.data     0.012195                       # mshr miss rate for SwapReq accesses
system.cpu.dcache.SwapReq_mshr_miss_rate::total     0.012195                       # mshr miss rate for SwapReq accesses
system.cpu.dcache.SwapReq_avg_mshr_miss_latency::.cpu.data       121000                       # average SwapReq mshr miss latency
system.cpu.dcache.SwapReq_avg_mshr_miss_latency::total       121000                       # average SwapReq mshr miss latency
system.cpu.dcache.power_state.pwrStateResidencyTicks::UNDEFINED 969769634000                       # Cumulative time (in ticks) in various power states
system.cpu.dcache.tags.tagsinuse           255.954786                       # Cycle average of tags in use
system.cpu.dcache.tags.total_refs           637792833                       # Total number of references to valid blocks.
system.cpu.dcache.tags.sampled_refs          23909843                       # Sample count of references to valid blocks.
system.cpu.dcache.tags.avg_refs             26.674907                       # Average number of references to valid blocks.
system.cpu.dcache.tags.warmup_cycle            238000                       # Cycle when the warmup percentage was hit.
system.cpu.dcache.tags.occ_blocks::.cpu.data   255.954786                       # Average occupied blocks per requestor
system.cpu.dcache.tags.occ_percent::.cpu.data     0.999823                       # Average percentage of cache occupancy
system.cpu.dcache.tags.occ_percent::total     0.999823                       # Average percentage of cache occupancy
system.cpu.dcache.tags.occ_task_id_blocks::1024          256                       # Occupied blocks per task id
system.cpu.dcache.tags.age_task_id_blocks_1024::0           15                       # Occupied blocks per task id
system.cpu.dcache.tags.age_task_id_blocks_1024::1            1                       # Occupied blocks per task id
system.cpu.dcache.tags.age_task_id_blocks_1024::2          238                       # Occupied blocks per task id
system.cpu.dcache.tags.age_task_id_blocks_1024::3            2                       # Occupied blocks per task id
system.cpu.dcache.tags.occ_task_id_percent::1024            1                       # Percentage of cache occupancy per task id
system.cpu.dcache.tags.tag_accesses        5315572299                       # Number of tag accesses
system.cpu.dcache.tags.data_accesses       5315572299                       # Number of data accesses
system.cpu.dcache.tags.power_state.pwrStateResidencyTicks::UNDEFINED 969769634000                       # Cumulative time (in ticks) in various power states
system.cpu.decode.idleCycles                144427565                       # Number of cycles decode is idle
system.cpu.decode.blockedCycles             475348129                       # Number of cycles decode is blocked
system.cpu.decode.runCycles                 289145139                       # Number of cycles decode is running
system.cpu.decode.unblockCycles              56505928                       # Number of cycles decode is unblocking
system.cpu.decode.squashCycles                4308405                       # Number of cycles decode is squashing
system.cpu.decode.branchResolved            174886056                       # Number of times decode resolved a  branch
system.cpu.decode.branchMispred                  1210                       # Number of times decode detected a branch misprediction
system.cpu.decode.decodedInsts             2148902529                       # Number of instructions handled by decode
system.cpu.decode.squashedInsts                  4969                       # Number of squashed instructions handled by decode
system.cpu.dtb.instHits                             0                       # ITB inst hits
system.cpu.dtb.instMisses                           0                       # ITB inst misses
system.cpu.dtb.readHits                             0                       # DTB read hits
system.cpu.dtb.readMisses                           0                       # DTB read misses
system.cpu.dtb.writeHits                            0                       # DTB write hits
system.cpu.dtb.writeMisses                          0                       # DTB write misses
system.cpu.dtb.inserts                              0                       # Number of times an entry is inserted into the TLB
system.cpu.dtb.flushTlb                             6                       # Number of times complete TLB was flushed
system.cpu.dtb.flushTlbMva                          0                       # Number of times TLB was flushed by MVA
system.cpu.dtb.flushTlbMvaAsid                      0                       # Number of times TLB was flushed by MVA & ASID
system.cpu.dtb.flushTlbAsid                         0                       # Number of times TLB was flushed by ASID
system.cpu.dtb.flushedEntries                       0                       # Number of entries that have been flushed from TLB
system.cpu.dtb.alignFaults                          0                       # Number of TLB faults due to alignment restrictions
system.cpu.dtb.prefetchFaults                       0                       # Number of TLB faults due to prefetch
system.cpu.dtb.domainFaults                         0                       # Number of TLB faults due to domain restrictions
system.cpu.dtb.permsFaults                          0                       # Number of TLB faults due to permissions restrictions
system.cpu.dtb.readAccesses                         0                       # DTB read accesses
system.cpu.dtb.writeAccesses                        0                       # DTB write accesses
system.cpu.dtb.instAccesses                         0                       # ITB inst accesses
system.cpu.dtb.hits                                 0                       # Total TLB (inst and data) hits
system.cpu.dtb.misses                               0                       # Total TLB (inst and data) misses
system.cpu.dtb.accesses                             0                       # Total TLB (inst and data) accesses
system.cpu.dtb.stage2_mmu.stage2_tlb.instHits            0                       # ITB inst hits
system.cpu.dtb.stage2_mmu.stage2_tlb.instMisses            0                       # ITB inst misses
system.cpu.dtb.stage2_mmu.stage2_tlb.readHits            0                       # DTB read hits
system.cpu.dtb.stage2_mmu.stage2_tlb.readMisses            0                       # DTB read misses
system.cpu.dtb.stage2_mmu.stage2_tlb.writeHits            0                       # DTB write hits
system.cpu.dtb.stage2_mmu.stage2_tlb.writeMisses            0                       # DTB write misses
system.cpu.dtb.stage2_mmu.stage2_tlb.inserts            0                       # Number of times an entry is inserted into the TLB
system.cpu.dtb.stage2_mmu.stage2_tlb.flushTlb            0                       # Number of times complete TLB was flushed
system.cpu.dtb.stage2_mmu.stage2_tlb.flushTlbMva            0                       # Number of times TLB was flushed by MVA
system.cpu.dtb.stage2_mmu.stage2_tlb.flushTlbMvaAsid            0                       # Number of times TLB was flushed by MVA & ASID
system.cpu.dtb.stage2_mmu.stage2_tlb.flushTlbAsid            0                       # Number of times TLB was flushed by ASID
system.cpu.dtb.stage2_mmu.stage2_tlb.flushedEntries            0                       # Number of entries that have been flushed from TLB
system.cpu.dtb.stage2_mmu.stage2_tlb.alignFaults            0                       # Number of TLB faults due to alignment restrictions
system.cpu.dtb.stage2_mmu.stage2_tlb.prefetchFaults            0                       # Number of TLB faults due to prefetch
system.cpu.dtb.stage2_mmu.stage2_tlb.domainFaults            0                       # Number of TLB faults due to domain restrictions
system.cpu.dtb.stage2_mmu.stage2_tlb.permsFaults            0                       # Number of TLB faults due to permissions restrictions
system.cpu.dtb.stage2_mmu.stage2_tlb.readAccesses            0                       # DTB read accesses
system.cpu.dtb.stage2_mmu.stage2_tlb.writeAccesses            0                       # DTB write accesses
system.cpu.dtb.stage2_mmu.stage2_tlb.instAccesses            0                       # ITB inst accesses
system.cpu.dtb.stage2_mmu.stage2_tlb.hits            0                       # Total TLB (inst and data) hits
system.cpu.dtb.stage2_mmu.stage2_tlb.misses            0                       # Total TLB (inst and data) misses
system.cpu.dtb.stage2_mmu.stage2_tlb.accesses            0                       # Total TLB (inst and data) accesses
system.cpu.dtb.stage2_mmu.stage2_tlb.walker.walks            0                       # Table walker walks requested
system.cpu.dtb.stage2_mmu.stage2_tlb.walker.requestOrigin_Requested::Data            0                       # Table walker requests started/completed, data/inst
system.cpu.dtb.stage2_mmu.stage2_tlb.walker.requestOrigin_Requested::Inst            0                       # Table walker requests started/completed, data/inst
system.cpu.dtb.stage2_mmu.stage2_tlb.walker.requestOrigin_Requested::total            0                       # Table walker requests started/completed, data/inst
system.cpu.dtb.stage2_mmu.stage2_tlb.walker.requestOrigin_Completed::Data            0                       # Table walker requests started/completed, data/inst
system.cpu.dtb.stage2_mmu.stage2_tlb.walker.requestOrigin_Completed::Inst            0                       # Table walker requests started/completed, data/inst
system.cpu.dtb.stage2_mmu.stage2_tlb.walker.requestOrigin_Completed::total            0                       # Table walker requests started/completed, data/inst
system.cpu.dtb.stage2_mmu.stage2_tlb.walker.requestOrigin::total            0                       # Table walker requests started/completed, data/inst
system.cpu.dtb.stage2_mmu.stage2_tlb.walker.power_state.pwrStateResidencyTicks::UNDEFINED 969769634000                       # Cumulative time (in ticks) in various power states
system.cpu.dtb.walker.walks                         0                       # Table walker walks requested
system.cpu.dtb.walker.requestOrigin_Requested::Data            0                       # Table walker requests started/completed, data/inst
system.cpu.dtb.walker.requestOrigin_Requested::Inst            0                       # Table walker requests started/completed, data/inst
system.cpu.dtb.walker.requestOrigin_Requested::total            0                       # Table walker requests started/completed, data/inst
system.cpu.dtb.walker.requestOrigin_Completed::Data            0                       # Table walker requests started/completed, data/inst
system.cpu.dtb.walker.requestOrigin_Completed::Inst            0                       # Table walker requests started/completed, data/inst
system.cpu.dtb.walker.requestOrigin_Completed::total            0                       # Table walker requests started/completed, data/inst
system.cpu.dtb.walker.requestOrigin::total            0                       # Table walker requests started/completed, data/inst
system.cpu.dtb.walker.power_state.pwrStateResidencyTicks::UNDEFINED 969769634000                       # Cumulative time (in ticks) in various power states
system.cpu.fetch.icacheStallCycles          259180137                       # Number of cycles fetch is stalled on an Icache miss
system.cpu.fetch.insts                     2126160930                       # Number of instructions fetch has processed
system.cpu.fetch.branches                   285334203                       # Number of branches that fetch encountered
system.cpu.fetch.predictedBranches          202370346                       # Number of branches that fetch has predicted taken
system.cpu.fetch.cycles                     706245413                       # Number of cycles fetch has run and was not squashing or blocked
system.cpu.fetch.squashCycles                 8619164                       # Number of cycles fetch has spent squashing
system.cpu.fetch.miscStallCycles                    5                       # Number of cycles fetch has spent waiting on interrupts,or bad addresses, or out of MSHRs
system.cpu.fetch.icacheWaitRetryStallCycles           29                       # Number of stall cycles due to full MSHR
system.cpu.fetch.cacheLines                 256533117                       # Number of cache lines fetched
system.cpu.fetch.icacheSquashes               1385659                       # Number of outstanding Icache misses that were squashed
system.cpu.fetch.nisnDist::samples          969735166                       # Number of instructions fetched each cycle (Total)
system.cpu.fetch.nisnDist::mean              2.279959                       # Number of instructions fetched each cycle (Total)
system.cpu.fetch.nisnDist::stdev             2.999050                       # Number of instructions fetched each cycle (Total)
system.cpu.fetch.nisnDist::underflows               0      0.00%      0.00% # Number of instructions fetched each cycle (Total)
system.cpu.fetch.nisnDist::0                533653089     55.03%     55.03% # Number of instructions fetched each cycle (Total)
system.cpu.fetch.nisnDist::1                 37546647      3.87%     58.90% # Number of instructions fetched each cycle (Total)
system.cpu.fetch.nisnDist::2                 40520131      4.18%     63.08% # Number of instructions fetched each cycle (Total)
system.cpu.fetch.nisnDist::3                 52074158      5.37%     68.45% # Number of instructions fetched each cycle (Total)
system.cpu.fetch.nisnDist::4                 80633567      8.32%     76.77% # Number of instructions fetched each cycle (Total)
system.cpu.fetch.nisnDist::5                 20999489      2.17%     78.93% # Number of instructions fetched each cycle (Total)
system.cpu.fetch.nisnDist::6                 45789725      4.72%     83.65% # Number of instructions fetched each cycle (Total)
system.cpu.fetch.nisnDist::7                 34269564      3.53%     87.19% # Number of instructions fetched each cycle (Total)
system.cpu.fetch.nisnDist::8                124248796     12.81%    100.00% # Number of instructions fetched each cycle (Total)
system.cpu.fetch.nisnDist::overflows                0      0.00%    100.00% # Number of instructions fetched each cycle (Total)
system.cpu.fetch.nisnDist::min_value                0                       # Number of instructions fetched each cycle (Total)
system.cpu.fetch.nisnDist::max_value                8                       # Number of instructions fetched each cycle (Total)
system.cpu.fetch.nisnDist::total            969735166                       # Number of instructions fetched each cycle (Total)
system.cpu.fetch.branchRate                  0.294229                       # Number of branch fetches per cycle
system.cpu.fetch.rate                        2.192439                       # Number of inst fetches per cycle
system.cpu.icache.demand_hits::.cpu.inst    256532114                       # number of demand (read+write) hits
system.cpu.icache.demand_hits::total        256532114                       # number of demand (read+write) hits
system.cpu.icache.overall_hits::.cpu.inst    256532114                       # number of overall hits
system.cpu.icache.overall_hits::total       256532114                       # number of overall hits
system.cpu.icache.demand_misses::.cpu.inst         1002                       # number of demand (read+write) misses
system.cpu.icache.demand_misses::total           1002                       # number of demand (read+write) misses
system.cpu.icache.overall_misses::.cpu.inst         1002                       # number of overall misses
system.cpu.icache.overall_misses::total          1002                       # number of overall misses
system.cpu.icache.demand_miss_latency::.cpu.inst    100841999                       # number of demand (read+write) miss cycles
system.cpu.icache.demand_miss_latency::total    100841999                       # number of demand (read+write) miss cycles
system.cpu.icache.overall_miss_latency::.cpu.inst    100841999                       # number of overall miss cycles
system.cpu.icache.overall_miss_latency::total    100841999                       # number of overall miss cycles
system.cpu.icache.demand_accesses::.cpu.inst    256533116                       # number of demand (read+write) accesses
system.cpu.icache.demand_accesses::total    256533116                       # number of demand (read+write) accesses
system.cpu.icache.overall_accesses::.cpu.inst    256533116                       # number of overall (read+write) accesses
system.cpu.icache.overall_accesses::total    256533116                       # number of overall (read+write) accesses
system.cpu.icache.demand_miss_rate::.cpu.inst     0.000004                       # miss rate for demand accesses
system.cpu.icache.demand_miss_rate::total     0.000004                       # miss rate for demand accesses
system.cpu.icache.overall_miss_rate::.cpu.inst     0.000004                       # miss rate for overall accesses
system.cpu.icache.overall_miss_rate::total     0.000004                       # miss rate for overall accesses
system.cpu.icache.demand_avg_miss_latency::.cpu.inst 100640.717565                       # average overall miss latency
system.cpu.icache.demand_avg_miss_latency::total 100640.717565                       # average overall miss latency
system.cpu.icache.overall_avg_miss_latency::.cpu.inst 100640.717565                       # average overall miss latency
system.cpu.icache.overall_avg_miss_latency::total 100640.717565                       # average overall miss latency
system.cpu.icache.blocked_cycles::no_mshrs          447                       # number of cycles access was blocked
system.cpu.icache.blocked_cycles::no_targets            0                       # number of cycles access was blocked
system.cpu.icache.blocked::no_mshrs                10                       # number of cycles access was blocked
system.cpu.icache.blocked::no_targets               0                       # number of cycles access was blocked
system.cpu.icache.avg_blocked_cycles::no_mshrs    44.700000                       # average number of cycles each access was blocked
system.cpu.icache.avg_blocked_cycles::no_targets          nan                       # average number of cycles each access was blocked
system.cpu.icache.writebacks::.writebacks          214                       # number of writebacks
system.cpu.icache.writebacks::total               214                       # number of writebacks
system.cpu.icache.demand_mshr_hits::.cpu.inst          281                       # number of demand (read+write) MSHR hits
system.cpu.icache.demand_mshr_hits::total          281                       # number of demand (read+write) MSHR hits
system.cpu.icache.overall_mshr_hits::.cpu.inst          281                       # number of overall MSHR hits
system.cpu.icache.overall_mshr_hits::total          281                       # number of overall MSHR hits
system.cpu.icache.demand_mshr_misses::.cpu.inst          721                       # number of demand (read+write) MSHR misses
system.cpu.icache.demand_mshr_misses::total          721                       # number of demand (read+write) MSHR misses
system.cpu.icache.overall_mshr_misses::.cpu.inst          721                       # number of overall MSHR misses
system.cpu.icache.overall_mshr_misses::total          721                       # number of overall MSHR misses
system.cpu.icache.demand_mshr_miss_latency::.cpu.inst     77287999                       # number of demand (read+write) MSHR miss cycles
system.cpu.icache.demand_mshr_miss_latency::total     77287999                       # number of demand (read+write) MSHR miss cycles
system.cpu.icache.overall_mshr_miss_latency::.cpu.inst     77287999                       # number of overall MSHR miss cycles
system.cpu.icache.overall_mshr_miss_latency::total     77287999                       # number of overall MSHR miss cycles
system.cpu.icache.demand_mshr_miss_rate::.cpu.inst     0.000003                       # mshr miss rate for demand accesses
system.cpu.icache.demand_mshr_miss_rate::total     0.000003                       # mshr miss rate for demand accesses
system.cpu.icache.overall_mshr_miss_rate::.cpu.inst     0.000003                       # mshr miss rate for overall accesses
system.cpu.icache.overall_mshr_miss_rate::total     0.000003                       # mshr miss rate for overall accesses
system.cpu.icache.demand_avg_mshr_miss_latency::.cpu.inst 107195.560333                       # average overall mshr miss latency
system.cpu.icache.demand_avg_mshr_miss_latency::total 107195.560333                       # average overall mshr miss latency
system.cpu.icache.overall_avg_mshr_miss_latency::.cpu.inst 107195.560333                       # average overall mshr miss latency
system.cpu.icache.overall_avg_mshr_miss_latency::total 107195.560333                       # average overall mshr miss latency
system.cpu.icache.replacements                    214                       # number of replacements
system.cpu.icache.ReadReq_hits::.cpu.inst    256532114                       # number of ReadReq hits
system.cpu.icache.ReadReq_hits::total       256532114                       # number of ReadReq hits
system.cpu.icache.ReadReq_misses::.cpu.inst         1002                       # number of ReadReq misses
system.cpu.icache.ReadReq_misses::total          1002                       # number of ReadReq misses
system.cpu.icache.ReadReq_miss_latency::.cpu.inst    100841999                       # number of ReadReq miss cycles
system.cpu.icache.ReadReq_miss_latency::total    100841999                       # number of ReadReq miss cycles
system.cpu.icache.ReadReq_accesses::.cpu.inst    256533116                       # number of ReadReq accesses(hits+misses)
system.cpu.icache.ReadReq_accesses::total    256533116                       # number of ReadReq accesses(hits+misses)
system.cpu.icache.ReadReq_miss_rate::.cpu.inst     0.000004                       # miss rate for ReadReq accesses
system.cpu.icache.ReadReq_miss_rate::total     0.000004                       # miss rate for ReadReq accesses
system.cpu.icache.ReadReq_avg_miss_latency::.cpu.inst 100640.717565                       # average ReadReq miss latency
system.cpu.icache.ReadReq_avg_miss_latency::total 100640.717565                       # average ReadReq miss latency
system.cpu.icache.ReadReq_mshr_hits::.cpu.inst          281                       # number of ReadReq MSHR hits
system.cpu.icache.ReadReq_mshr_hits::total          281                       # number of ReadReq MSHR hits
system.cpu.icache.ReadReq_mshr_misses::.cpu.inst          721                       # number of ReadReq MSHR misses
system.cpu.icache.ReadReq_mshr_misses::total          721                       # number of ReadReq MSHR misses
system.cpu.icache.ReadReq_mshr_miss_latency::.cpu.inst     77287999                       # number of ReadReq MSHR miss cycles
system.cpu.icache.ReadReq_mshr_miss_latency::total     77287999                       # number of ReadReq MSHR miss cycles
system.cpu.icache.ReadReq_mshr_miss_rate::.cpu.inst     0.000003                       # mshr miss rate for ReadReq accesses
system.cpu.icache.ReadReq_mshr_miss_rate::total     0.000003                       # mshr miss rate for ReadReq accesses
system.cpu.icache.ReadReq_avg_mshr_miss_latency::.cpu.inst 107195.560333                       # average ReadReq mshr miss latency
system.cpu.icache.ReadReq_avg_mshr_miss_latency::total 107195.560333                       # average ReadReq mshr miss latency
system.cpu.icache.power_state.pwrStateResidencyTicks::UNDEFINED 969769634000                       # Cumulative time (in ticks) in various power states
system.cpu.icache.tags.tagsinuse           367.804520                       # Cycle average of tags in use
system.cpu.icache.tags.total_refs           256532835                       # Total number of references to valid blocks.
system.cpu.icache.tags.sampled_refs               721                       # Sample count of references to valid blocks.
system.cpu.icache.tags.avg_refs          355801.435506                       # Average number of references to valid blocks.
system.cpu.icache.tags.warmup_cycle            108000                       # Cycle when the warmup percentage was hit.
system.cpu.icache.tags.occ_blocks::.cpu.inst   367.804520                       # Average occupied blocks per requestor
system.cpu.icache.tags.occ_percent::.cpu.inst     0.718368                       # Average percentage of cache occupancy
system.cpu.icache.tags.occ_percent::total     0.718368                       # Average percentage of cache occupancy
system.cpu.icache.tags.occ_task_id_blocks::1024          506                       # Occupied blocks per task id
system.cpu.icache.tags.age_task_id_blocks_1024::0           40                       # Occupied blocks per task id
system.cpu.icache.tags.age_task_id_blocks_1024::1            6                       # Occupied blocks per task id
system.cpu.icache.tags.age_task_id_blocks_1024::2          263                       # Occupied blocks per task id
system.cpu.icache.tags.age_task_id_blocks_1024::4          197                       # Occupied blocks per task id
system.cpu.icache.tags.occ_task_id_percent::1024     0.988281                       # Percentage of cache occupancy per task id
system.cpu.icache.tags.tag_accesses        2052265649                       # Number of tag accesses
system.cpu.icache.tags.data_accesses       2052265649                       # Number of data accesses
system.cpu.icache.tags.power_state.pwrStateResidencyTicks::UNDEFINED 969769634000                       # Cumulative time (in ticks) in various power states
system.cpu.itb.instHits                             0                       # ITB inst hits
system.cpu.itb.instMisses                           0                       # ITB inst misses
system.cpu.itb.readHits                             0                       # DTB read hits
system.cpu.itb.readMisses                           0                       # DTB read misses
system.cpu.itb.writeHits                            0                       # DTB write hits
system.cpu.itb.writeMisses                          0                       # DTB write misses
[...]
system.mem_ctrls.dram.writeBursts              232443                       # Number of DRAM write bursts
system.mem_ctrls.dram.perBankRdBursts::0       222520                       # Per bank write bursts
system.mem_ctrls.dram.perBankRdBursts::1       223657                       # Per bank write bursts
system.mem_ctrls.dram.perBankRdBursts::2       229865                       # Per bank write bursts
system.mem_ctrls.dram.perBankRdBursts::3       223604                       # Per bank write bursts
system.mem_ctrls.dram.perBankRdBursts::4       226727                       # Per bank write bursts
system.mem_ctrls.dram.perBankRdBursts::5       217286                       # Per bank write bursts
system.mem_ctrls.dram.perBankRdBursts::6       219678                       # Per bank write bursts
system.mem_ctrls.dram.perBankRdBursts::7       221816                       # Per bank write bursts
system.mem_ctrls.dram.perBankRdBursts::8       223841                       # Per bank write bursts
system.mem_ctrls.dram.perBankRdBursts::9       220113                       # Per bank write bursts
system.mem_ctrls.dram.perBankRdBursts::10       223991                       # Per bank write bursts
system.mem_ctrls.dram.perBankRdBursts::11       197567                       # Per bank write bursts
system.mem_ctrls.dram.perBankRdBursts::12       208515                       # Per bank write bursts
system.mem_ctrls.dram.perBankRdBursts::13       221869                       # Per bank write bursts
system.mem_ctrls.dram.perBankRdBursts::14       225411                       # Per bank write bursts
system.mem_ctrls.dram.perBankRdBursts::15       233865                       # Per bank write bursts
system.mem_ctrls.dram.perBankWrBursts::0        11520                       # Per bank write bursts
system.mem_ctrls.dram.perBankWrBursts::1        11038                       # Per bank write bursts
system.mem_ctrls.dram.perBankWrBursts::2        11934                       # Per bank write bursts
system.mem_ctrls.dram.perBankWrBursts::3        14480                       # Per bank write bursts
system.mem_ctrls.dram.perBankWrBursts::4        14640                       # Per bank write bursts
system.mem_ctrls.dram.perBankWrBursts::5        14684                       # Per bank write bursts
system.mem_ctrls.dram.perBankWrBursts::6        14912                       # Per bank write bursts
system.mem_ctrls.dram.perBankWrBursts::7        14836                       # Per bank write bursts
system.mem_ctrls.dram.perBankWrBursts::8        21504                       # Per bank write bursts
system.mem_ctrls.dram.perBankWrBursts::9        15210                       # Per bank write bursts
system.mem_ctrls.dram.perBankWrBursts::10        14898                       # Per bank write bursts
system.mem_ctrls.dram.perBankWrBursts::11        14029                       # Per bank write bursts
system.mem_ctrls.dram.perBankWrBursts::12        13342                       # Per bank write bursts
system.mem_ctrls.dram.perBankWrBursts::13        14970                       # Per bank write bursts
system.mem_ctrls.dram.perBankWrBursts::14        15296                       # Per bank write bursts
system.mem_ctrls.dram.perBankWrBursts::15        15150                       # Per bank write bursts
system.mem_ctrls.dram.totQLat             55387866098                       # Total ticks spent queuing
system.mem_ctrls.dram.totBusLat           13283299400                       # Total ticks spent in databus transfers
system.mem_ctrls.dram.totMemAccLat       115014019748                       # Total ticks spent from burst creation until serviced by the DRAM
system.mem_ctrls.dram.avgQLat                15644.85                       # Average queueing delay per DRAM burst
system.mem_ctrls.dram.avgBusLat               3752.00                       # Average bus latency per DRAM burst
system.mem_ctrls.dram.avgMemAccLat           32486.85                       # Average memory access latency per DRAM burst
system.mem_ctrls.dram.readRowHits             3157210                       # Number of row buffer hits during reads
system.mem_ctrls.dram.writeRowHits             181375                       # Number of row buffer hits during writes
system.mem_ctrls.dram.readRowHitRate            89.18                       # Row buffer hit rate for reads
system.mem_ctrls.dram.writeRowHitRate           78.03                       # Row buffer hit rate for writes
system.mem_ctrls.dram.bytesPerActivate::samples       434171                       # Bytes accessed per row activation
system.mem_ctrls.dram.bytesPerActivate::mean   556.125803                       # Bytes accessed per row activation
system.mem_ctrls.dram.bytesPerActivate::gmean   394.376000                       # Bytes accessed per row activation
system.mem_ctrls.dram.bytesPerActivate::stdev   390.494758                       # Bytes accessed per row activation
system.mem_ctrls.dram.bytesPerActivate::0-127         5276      1.22%      1.22% # Bytes accessed per row activation
system.mem_ctrls.dram.bytesPerActivate::128-255       131306     30.24%     31.46% # Bytes accessed per row activation
system.mem_ctrls.dram.bytesPerActivate::256-383        50651     11.67%     43.12% # Bytes accessed per row activation
system.mem_ctrls.dram.bytesPerActivate::384-511        31438      7.24%     50.37% # Bytes accessed per row activation
system.mem_ctrls.dram.bytesPerActivate::512-639        20411      4.70%     55.07% # Bytes accessed per row activation
system.mem_ctrls.dram.bytesPerActivate::640-767        17584      4.05%     59.12% # Bytes accessed per row activation
system.mem_ctrls.dram.bytesPerActivate::768-895        10939      2.52%     61.64% # Bytes accessed per row activation
system.mem_ctrls.dram.bytesPerActivate::896-1023        15026      3.46%     65.10% # Bytes accessed per row activation
system.mem_ctrls.dram.bytesPerActivate::1024-1151       151540     34.90%    100.00% # Bytes accessed per row activation
system.mem_ctrls.dram.bytesPerActivate::total       434171                       # Bytes accessed per row activation
system.mem_ctrls.dram.bytesRead             226580800                       # Total number of bytes read from DRAM
system.mem_ctrls.dram.bytesWritten           14876352                       # Total number of bytes written to DRAM
system.mem_ctrls.dram.avgRdBW              233.643942                       # Average DRAM read bandwidth in MiBytes/s
system.mem_ctrls.dram.avgWrBW               15.340088                       # Average DRAM write bandwidth in MiBytes/s
system.mem_ctrls.dram.peakBW                 17057.00                       # Theoretical peak bandwidth in MiByte/s
system.mem_ctrls.dram.busUtil                    1.46                       # Data bus utilization in percentage
system.mem_ctrls.dram.busUtilRead                1.37                       # Data bus utilization in percentage for reads
system.mem_ctrls.dram.busUtilWrite               0.09                       # Data bus utilization in percentage for writes
system.mem_ctrls.dram.pageHitRate               88.49                       # Row buffer hit rate, read and write combined
system.mem_ctrls.dram.power_state.pwrStateResidencyTicks::UNDEFINED 969769634000                       # Cumulative time (in ticks) in various power states
system.mem_ctrls.dram.rank0.actEnergy    2283447269.377406                       # Energy for activate commands per rank (pJ)
system.mem_ctrls.dram.rank0.preEnergy    1127054950.560563                       # Energy for precharge commands per rank (pJ)
system.mem_ctrls.dram.rank0.readEnergy   11815085114.782818                       # Energy for read commands per rank (pJ)
system.mem_ctrls.dram.rank0.writeEnergy  549696755.328002                       # Energy for write commands per rank (pJ)
system.mem_ctrls.dram.rank0.refreshEnergy 80278266823.266754                       # Energy for refresh commands per rank (pJ)
system.mem_ctrls.dram.rank0.actBackEnergy 175109226090.056732                       # Energy for active background per rank (pJ)
system.mem_ctrls.dram.rank0.preBackEnergy 283326777440.554565                       # Energy for precharge background per rank (pJ)
system.mem_ctrls.dram.rank0.actPowerDownEnergy            0                       # Energy for active power-down per rank (pJ)
system.mem_ctrls.dram.rank0.prePowerDownEnergy            0                       # Energy for precharge power-down per rank (pJ)
system.mem_ctrls.dram.rank0.selfRefreshEnergy            0                       # Energy for self refresh per rank (pJ)
system.mem_ctrls.dram.rank0.totalEnergy  554489554443.640625                       # Total energy per rank (pJ)
system.mem_ctrls.dram.rank0.averagePower   571.774507                       # Core power per rank (mW)
system.mem_ctrls.dram.rank0.totalIdleTime            0                       # Total Idle time Per DRAM Rank
system.mem_ctrls.dram.rank0.pwrStateTime::IDLE 635290862403                       # Time in different power states
system.mem_ctrls.dram.rank0.pwrStateTime::REF  32379880000                       # Time in different power states
system.mem_ctrls.dram.rank0.pwrStateTime::SREF            0                       # Time in different power states
system.mem_ctrls.dram.rank0.pwrStateTime::PRE_PDN            0                       # Time in different power states
system.mem_ctrls.dram.rank0.pwrStateTime::ACT 302098891597                       # Time in different power states
system.mem_ctrls.dram.rank0.pwrStateTime::ACT_PDN            0                       # Time in different power states
system.mem_ctrls.dram.rank1.actEnergy    2290938092.353387                       # Energy for activate commands per rank (pJ)
system.mem_ctrls.dram.rank1.preEnergy    1130752343.952568                       # Energy for precharge commands per rank (pJ)
system.mem_ctrls.dram.rank1.readEnergy   11616655026.814859                       # Energy for read commands per rank (pJ)
system.mem_ctrls.dram.rank1.writeEnergy  632906285.087985                       # Energy for write commands per rank (pJ)
system.mem_ctrls.dram.rank1.refreshEnergy 80278266823.266754                       # Energy for refresh commands per rank (pJ)
system.mem_ctrls.dram.rank1.actBackEnergy 174725619854.122437                       # Energy for active background per rank (pJ)
system.mem_ctrls.dram.rank1.preBackEnergy 283649355411.687012                       # Energy for precharge background per rank (pJ)
system.mem_ctrls.dram.rank1.actPowerDownEnergy            0                       # Energy for active power-down per rank (pJ)
system.mem_ctrls.dram.rank1.prePowerDownEnergy            0                       # Energy for precharge power-down per rank (pJ)
system.mem_ctrls.dram.rank1.selfRefreshEnergy            0                       # Energy for self refresh per rank (pJ)
system.mem_ctrls.dram.rank1.totalEnergy  554324493836.985840                       # Total energy per rank (pJ)
system.mem_ctrls.dram.rank1.averagePower   571.604301                       # Core power per rank (mW)
system.mem_ctrls.dram.rank1.totalIdleTime            0                       # Total Idle time Per DRAM Rank
system.mem_ctrls.dram.rank1.pwrStateTime::IDLE 636007208013                       # Time in different power states
system.mem_ctrls.dram.rank1.pwrStateTime::REF  32379880000                       # Time in different power states
system.mem_ctrls.dram.rank1.pwrStateTime::SREF            0                       # Time in different power states
system.mem_ctrls.dram.rank1.pwrStateTime::PRE_PDN            0                       # Time in different power states
system.mem_ctrls.dram.rank1.pwrStateTime::ACT 301382545987                       # Time in different power states
system.mem_ctrls.dram.rank1.pwrStateTime::ACT_PDN            0                       # Time in different power states
system.mem_ctrls.power_state.pwrStateResidencyTicks::UNDEFINED 969769634000                       # Cumulative time (in ticks) in various power states
system.membus.trans_dist::ReadResp            1719205                       # Transaction distribution
system.membus.trans_dist::WritebackDirty       116239                       # Transaction distribution
system.membus.trans_dist::CleanEvict          1647094                       # Transaction distribution
system.membus.trans_dist::UpgradeReq                2                       # Transaction distribution
system.membus.trans_dist::ReadExReq             52591                       # Transaction distribution
system.membus.trans_dist::ReadExResp            52591                       # Transaction distribution
system.membus.trans_dist::ReadSharedReq       1719205                       # Transaction distribution
system.membus.trans_dist::InvalidateReq             1                       # Transaction distribution
system.membus.pkt_count_system.l2.mem_side_port::system.mem_ctrls.port      5306928                       # Packet count per connected requestor and responder (bytes)
system.membus.pkt_count::total                5306928                       # Packet count per connected requestor and responder (bytes)
system.membus.pkt_size_system.l2.mem_side_port::system.mem_ctrls.port    241668480                       # Cumulative packet size per connected requestor and responder (bytes)
system.membus.pkt_size::total               241668480                       # Cumulative packet size per connected requestor and responder (bytes)
system.membus.snoops                                0                       # Total snoops (count)
system.membus.snoopTraffic                          0                       # Total snoop traffic (bytes)
system.membus.snoop_fanout::samples           1771799                       # Request fanout histogram
system.membus.snoop_fanout::mean                    0                       # Request fanout histogram
system.membus.snoop_fanout::stdev                   0                       # Request fanout histogram
system.membus.snoop_fanout::underflows              0      0.00%      0.00% # Request fanout histogram
system.membus.snoop_fanout::0                 1771799    100.00%    100.00% # Request fanout histogram
system.membus.snoop_fanout::1                       0      0.00%    100.00% # Request fanout histogram
system.membus.snoop_fanout::overflows               0      0.00%    100.00% # Request fanout histogram
system.membus.snoop_fanout::min_value               0                       # Request fanout histogram
system.membus.snoop_fanout::max_value               0                       # Request fanout histogram
system.membus.snoop_fanout::total             1771799                       # Request fanout histogram
system.membus.power_state.pwrStateResidencyTicks::UNDEFINED 969769634000                       # Cumulative time (in ticks) in various power states
system.membus.reqLayer0.occupancy          4465681035                       # Layer occupancy (ticks)
system.membus.reqLayer0.utilization               0.5                       # Layer utilization (%)
system.membus.respLayer1.occupancy        16386260011                       # Layer occupancy (ticks)
system.membus.respLayer1.utilization              1.7                       # Layer utilization (%)
system.tol2bus.trans_dist::ReadResp          23127626                       # Transaction distribution
system.tol2bus.trans_dist::WritebackDirty     21802953                       # Transaction distribution
system.tol2bus.trans_dist::WritebackClean          214                       # Transaction distribution
system.tol2bus.trans_dist::CleanEvict         3870652                       # Transaction distribution
system.tol2bus.trans_dist::HardPFReq          1096457                       # Transaction distribution
system.tol2bus.trans_dist::UpgradeReq               2                       # Transaction distribution
system.tol2bus.trans_dist::UpgradeResp              2                       # Transaction distribution
system.tol2bus.trans_dist::ReadExReq           782937                       # Transaction distribution
system.tol2bus.trans_dist::ReadExResp          782937                       # Transaction distribution
system.tol2bus.trans_dist::ReadCleanReq           721                       # Transaction distribution
system.tol2bus.trans_dist::ReadSharedReq     23126905                       # Transaction distribution
system.tol2bus.trans_dist::InvalidateReq            1                       # Transaction distribution
system.tol2bus.trans_dist::InvalidateResp            1                       # Transaction distribution
system.tol2bus.pkt_count_system.cpu.icache.mem_side_port::system.l2.cpu_side_port         1656                       # Packet count per connected requestor and responder (bytes)
system.tol2bus.pkt_count_system.cpu.dcache.mem_side_port::system.l2.cpu_side_port     71729277                       # Packet count per connected requestor and responder (bytes)
system.tol2bus.pkt_count::total              71730933                       # Packet count per connected requestor and responder (bytes)
system.tol2bus.pkt_size_system.cpu.icache.mem_side_port::system.l2.cpu_side_port       119680                       # Cumulative packet size per connected requestor and responder (bytes)
system.tol2bus.pkt_size_system.cpu.dcache.mem_side_port::system.l2.cpu_side_port   5836359168                       # Cumulative packet size per connected requestor and responder (bytes)
system.tol2bus.pkt_size::total             5836478848                       # Cumulative packet size per connected requestor and responder (bytes)
system.tol2bus.snoops                         2860475                       # Total snoops (count)
system.tol2bus.snoopTraffic                  14878592                       # Total snoop traffic (bytes)
system.tol2bus.snoop_fanout::samples         26771041                       # Request fanout histogram
system.tol2bus.snoop_fanout::mean            0.000037                       # Request fanout histogram
system.tol2bus.snoop_fanout::stdev           0.006072                       # Request fanout histogram
system.tol2bus.snoop_fanout::underflows             0      0.00%      0.00% # Request fanout histogram
system.tol2bus.snoop_fanout::0               26770054    100.00%    100.00% # Request fanout histogram
system.tol2bus.snoop_fanout::1                    987      0.00%    100.00% # Request fanout histogram
system.tol2bus.snoop_fanout::2                      0      0.00%    100.00% # Request fanout histogram
system.tol2bus.snoop_fanout::overflows              0      0.00%    100.00% # Request fanout histogram
system.tol2bus.snoop_fanout::min_value              0                       # Request fanout histogram
system.tol2bus.snoop_fanout::max_value              1                       # Request fanout histogram
system.tol2bus.snoop_fanout::total           26771041                       # Request fanout histogram
system.tol2bus.power_state.pwrStateResidencyTicks::UNDEFINED 969769634000                       # Cumulative time (in ticks) in various power states
system.tol2bus.reqLayer0.occupancy       134568079000                       # Layer occupancy (ticks)
system.tol2bus.reqLayer0.utilization             13.9                       # Layer utilization (%)
system.tol2bus.respLayer0.occupancy           3605999                       # Layer occupancy (ticks)
system.tol2bus.respLayer0.utilization             0.0                       # Layer utilization (%)
system.tol2bus.respLayer1.occupancy      119549213000                       # Layer occupancy (ticks)
system.tol2bus.respLayer1.utilization            12.3                       # Layer utilization (%)
system.voltage_domain.voltage                       1                       # Voltage in Volts

---------- End Simulation Statistics   ----------
