
---------- Begin Simulation Statistics ----------
final_tick                               318010090895                       # Number of ticks from beginning of simulation (restored from checkpoints and never reset)
host_inst_rate                                 416100                       # Simulator instruction rate (inst/s)
host_mem_usage                               16966284                       # Number of bytes of host memory used
host_op_rate                                   416169                       # Simulator op (including micro ops) rate (op/s)
host_seconds                                     2.40                       # Real time elapsed on the host
host_tick_rate                               95017034                       # Simulator tick rate (ticks/s)
sim_freq                                 1000000000000                       # Frequency of simulated ticks
sim_insts                                     1000030                       # Number of instructions simulated
sim_ops                                       1000220                       # Number of ops (including micro ops) simulated
sim_seconds                                  0.000228                       # Number of seconds simulated
sim_ticks                                   228364895                       # Number of ticks simulated
system.cpu.Branches                                 6                       # Number of branches fetched
system.cpu.committedInsts                          30                       # Number of instructions committed
system.cpu.committedOps                            30                       # Number of ops (including micro ops) committed
system.cpu.idle_fraction                            0                       # Percentage of idle cycles
system.cpu.not_idle_fraction                        1                       # Percentage of non-idle cycles
system.cpu.numCycles                               30                       # number of cpu cycles simulated
system.cpu.numWorkItemsCompleted                    0                       # number of work items this cpu completed
system.cpu.numWorkItemsStarted                      0                       # number of work items this cpu started
system.cpu.num_busy_cycles                         30                       # Number of busy cycles
system.cpu.num_cc_register_reads                   18                       # number of times the CC registers were read
system.cpu.num_cc_register_writes                  15                       # number of times the CC registers were written
system.cpu.num_conditional_control_insts            6                       # number of instructions that are conditional controls
system.cpu.num_fp_alu_accesses                      0                       # Number of float alu accesses
system.cpu.num_fp_insts                             0                       # number of float instructions
system.cpu.num_fp_register_reads                    0                       # number of times the floating registers were read
system.cpu.num_fp_register_writes                   0                       # number of times the floating registers were written
system.cpu.num_func_calls                           0                       # number of times a function call or return occured
system.cpu.num_idle_cycles                          0                       # Number of idle cycles
system.cpu.num_int_alu_accesses                    24                       # Number of integer alu accesses
system.cpu.num_int_insts                           24                       # number of integer instructions
system.cpu.num_int_register_reads                  28                       # number of times the integer registers were read
system.cpu.num_int_register_writes                 23                       # number of times the integer registers were written
system.cpu.num_load_insts                          12                       # Number of load instructions
system.cpu.num_mem_refs                            13                       # number of memory refs
system.cpu.num_store_insts                          1                       # Number of store instructions
system.cpu.num_vec_alu_accesses                     0                       # Number of vector alu accesses
system.cpu.num_vec_insts                            0                       # number of vector instructions
system.cpu.num_vec_register_reads                   0                       # number of times the vector registers were read
system.cpu.num_vec_register_writes                  0                       # number of times the vector registers were written
system.cpu.op_class::No_OpClass                     0      0.00%      0.00% # Class of executed instruction
system.cpu.op_class::IntAlu                        17     56.67%     56.67% # Class of executed instruction
system.cpu.op_class::IntMult                        0      0.00%     56.67% # Class of executed instruction
system.cpu.op_class::IntDiv                         0      0.00%     56.67% # Class of executed instruction
system.cpu.op_class::FloatAdd                       0      0.00%     56.67% # Class of executed instruction
system.cpu.op_class::FloatCmp                       0      0.00%     56.67% # Class of executed instruction
system.cpu.op_class::FloatCvt                       0      0.00%     56.67% # Class of executed instruction
system.cpu.op_class::FloatMult                      0      0.00%     56.67% # Class of executed instruction
system.cpu.op_class::FloatMultAcc                   0      0.00%     56.67% # Class of executed instruction
system.cpu.op_class::FloatDiv                       0      0.00%     56.67% # Class of executed instruction
system.cpu.op_class::FloatMisc                      0      0.00%     56.67% # Class of executed instruction
system.cpu.op_class::FloatSqrt                      0      0.00%     56.67% # Class of executed instruction
system.cpu.op_class::SimdAdd                        0      0.00%     56.67% # Class of executed instruction
system.cpu.op_class::SimdAddAcc                     0      0.00%     56.67% # Class of executed instruction
system.cpu.op_class::SimdAlu                        0      0.00%     56.67% # Class of executed instruction
system.cpu.op_class::SimdCmp                        0      0.00%     56.67% # Class of executed instruction
system.cpu.op_class::SimdCvt                        0      0.00%     56.67% # Class of executed instruction
system.cpu.op_class::SimdMisc                       0      0.00%     56.67% # Class of executed instruction
system.cpu.op_class::SimdMult                       0      0.00%     56.67% # Class of executed instruction
system.cpu.op_class::SimdMultAcc                    0      0.00%     56.67% # Class of executed instruction
system.cpu.op_class::SimdShift                      0      0.00%     56.67% # Class of executed instruction
system.cpu.op_class::SimdShiftAcc                   0      0.00%     56.67% # Class of executed instruction
system.cpu.op_class::SimdDiv                        0      0.00%     56.67% # Class of executed instruction
system.cpu.op_class::SimdSqrt                       0      0.00%     56.67% # Class of executed instruction
system.cpu.op_class::SimdFloatAdd                   0      0.00%     56.67% # Class of executed instruction
system.cpu.op_class::SimdFloatAlu                   0      0.00%     56.67% # Class of executed instruction
system.cpu.op_class::SimdFloatCmp                   0      0.00%     56.67% # Class of executed instruction
system.cpu.op_class::SimdFloatCvt                   0      0.00%     56.67% # Class of executed instruction
system.cpu.op_class::SimdFloatDiv                   0      0.00%     56.67% # Class of executed instruction
system.cpu.op_class::SimdFloatMisc                  0      0.00%     56.67% # Class of executed instruction
system.cpu.op_class::SimdFloatMult                  0      0.00%     56.67% # Class of executed instruction
system.cpu.op_class::SimdFloatMultAcc               0      0.00%     56.67% # Class of executed instruction
system.cpu.op_class::SimdFloatSqrt                  0      0.00%     56.67% # Class of executed instruction
system.cpu.op_class::SimdReduceAdd                  0      0.00%     56.67% # Class of executed instruction
system.cpu.op_class::SimdReduceAlu                  0      0.00%     56.67% # Class of executed instruction
system.cpu.op_class::SimdReduceCmp                  0      0.00%     56.67% # Class of executed instruction
system.cpu.op_class::SimdFloatReduceAdd             0      0.00%     56.67% # Class of executed instruction
system.cpu.op_class::SimdFloatReduceCmp             0      0.00%     56.67% # Class of executed instruction
system.cpu.op_class::SimdAes                        0      0.00%     56.67% # Class of executed instruction
system.cpu.op_class::SimdAesMix                     0      0.00%     56.67% # Class of executed instruction
system.cpu.op_class::SimdSha1Hash                   0      0.00%     56.67% # Class of executed instruction
system.cpu.op_class::SimdSha1Hash2                  0      0.00%     56.67% # Class of executed instruction
system.cpu.op_class::SimdSha256Hash                 0      0.00%     56.67% # Class of executed instruction
system.cpu.op_class::SimdSha256Hash2                0      0.00%     56.67% # Class of executed instruction
system.cpu.op_class::SimdShaSigma2                  0      0.00%     56.67% # Class of executed instruction
system.cpu.op_class::SimdShaSigma3                  0      0.00%     56.67% # Class of executed instruction
system.cpu.op_class::SimdPredAlu                    0      0.00%     56.67% # Class of executed instruction
system.cpu.op_class::MemRead                       12     40.00%     96.67% # Class of executed instruction
system.cpu.op_class::MemWrite                       1      3.33%    100.00% # Class of executed instruction
system.cpu.op_class::FloatMemRead                   0      0.00%    100.00% # Class of executed instruction
system.cpu.op_class::FloatMemWrite                  0      0.00%    100.00% # Class of executed instruction
system.cpu.op_class::IprAccess                      0      0.00%    100.00% # Class of executed instruction
system.cpu.op_class::InstPrefetch                   0      0.00%    100.00% # Class of executed instruction
system.cpu.op_class::total                         30                       # Class of executed instruction
system.cpu.workload.numSyscalls                     2                       # Number of system calls
system.membus.snoop_filter.hit_multi_requests            0                       # Number of requests hitting in the snoop filter with multiple (>1) holders of the requested data.
system.membus.snoop_filter.hit_multi_snoops            0                       # Number of snoops hitting in the snoop filter with multiple (>1) holders of the requested data.
system.membus.snoop_filter.hit_single_requests            0                       # Number of requests hitting in the snoop filter with a single holder of the requested data.
system.membus.snoop_filter.hit_single_snoops            0                       # Number of snoops hitting in the snoop filter with a single holder of the requested data.
system.membus.snoop_filter.tot_requests          2267                       # Total number of requests made to the snoop filter.
system.membus.snoop_filter.tot_snoops               0                       # Total number of snoops made to the snoop filter.
system.switch_cpus.cc_regfile_reads            503145                       # number of cc regfile reads
system.switch_cpus.cc_regfile_writes           508185                       # number of cc regfile writes
system.switch_cpus.committedInsts             1000000                       # Number of Instructions Simulated
system.switch_cpus.committedOps               1000190                       # Number of Ops (including micro ops) Simulated
system.switch_cpus.cpi                       0.706981                       # CPI: Cycles Per Instruction
system.switch_cpus.cpi_total                 0.706981                       # CPI: Total CPI of All Threads
system.switch_cpus.idleCycles                    9736                       # Total number of cycles that the CPU has spent unscheduled due to idling
system.switch_cpus.iew.branchMispredicts         4635                       # Number of branch mispredicts detected at execute
system.switch_cpus.iew.exec_branches           167976                       # Number of branches executed
system.switch_cpus.iew.exec_nop                    37                       # number of nop insts executed
system.switch_cpus.iew.exec_rate             1.513472                       # Inst execution rate
system.switch_cpus.iew.exec_refs               521304                       # number of memory reference insts executed
system.switch_cpus.iew.exec_stores              52067                       # Number of stores executed
system.switch_cpus.iew.exec_swp                     0                       # number of swp insts executed
system.switch_cpus.iew.iewBlockCycles           14091                       # Number of cycles IEW is blocking
system.switch_cpus.iew.iewDispLoadInsts        480179                       # Number of dispatched load instructions
system.switch_cpus.iew.iewDispNonSpecInsts            8                       # Number of dispatched non-speculative instructions
system.switch_cpus.iew.iewDispSquashedInsts           61                       # Number of squashed instructions skipped by dispatch
system.switch_cpus.iew.iewDispStoreInsts        55450                       # Number of dispatched store instructions
system.switch_cpus.iew.iewDispatchedInsts      1107966                       # Number of instructions dispatched to IQ
system.switch_cpus.iew.iewExecLoadInsts        469237                       # Number of load instructions executed
system.switch_cpus.iew.iewExecSquashedInsts         4918                       # Number of squashed instructions skipped in execute
system.switch_cpus.iew.iewExecutedInsts       1069996                       # Number of executed instructions
system.switch_cpus.iew.iewIQFullEvents              4                       # Number of times the IQ has become full, causing a stall
system.switch_cpus.iew.iewIdleCycles                0                       # Number of cycles IEW is idle
system.switch_cpus.iew.iewLSQFullEvents         61234                       # Number of times the LSQ has become full, causing a stall
system.switch_cpus.iew.iewSquashCycles           4242                       # Number of cycles IEW is squashing
system.switch_cpus.iew.iewUnblockCycles         61209                       # Number of cycles IEW is unblocking
system.switch_cpus.iew.memOrderViolationEvents           51                       # Number of memory order violations
system.switch_cpus.iew.predictedNotTakenIncorrect         2087                       # Number of branches that were predicted not taken incorrectly
system.switch_cpus.iew.predictedTakenIncorrect         2548                       # Number of branches that were predicted taken incorrectly
system.switch_cpus.iew.wb_consumers           1173294                       # num instructions consuming a value
system.switch_cpus.iew.wb_count               1061817                       # cumulative count of insts written-back
system.switch_cpus.iew.wb_fanout             0.713794                       # average fanout of values written-back
system.switch_cpus.iew.wb_producers            837490                       # num instructions producing a value
system.switch_cpus.iew.wb_rate               1.501903                       # insts written-back per cycle
system.switch_cpus.iew.wb_sent                1064684                       # cumulative count of insts sent to commit
system.switch_cpus.int_regfile_reads          1104916                       # number of integer regfile reads
system.switch_cpus.int_regfile_writes          844795                       # number of integer regfile writes
system.switch_cpus.ipc                       1.414465                       # IPC: Instructions Per Cycle
system.switch_cpus.ipc_total                 1.414465                       # IPC: Total IPC of All Threads
system.switch_cpus.iq.FU_type_0::No_OpClass           32      0.00%      0.00% # Type of FU issued
system.switch_cpus.iq.FU_type_0::IntAlu        549055     51.08%     51.08% # Type of FU issued
system.switch_cpus.iq.FU_type_0::IntMult            0      0.00%     51.08% # Type of FU issued
system.switch_cpus.iq.FU_type_0::IntDiv             0      0.00%     51.08% # Type of FU issued
system.switch_cpus.iq.FU_type_0::FloatAdd            0      0.00%     51.08% # Type of FU issued
system.switch_cpus.iq.FU_type_0::FloatCmp            0      0.00%     51.08% # Type of FU issued
system.switch_cpus.iq.FU_type_0::FloatCvt            0      0.00%     51.08% # Type of FU issued
system.switch_cpus.iq.FU_type_0::FloatMult            0      0.00%     51.08% # Type of FU issued
system.switch_cpus.iq.FU_type_0::FloatMultAcc            0      0.00%     51.08% # Type of FU issued
system.switch_cpus.iq.FU_type_0::FloatDiv            0      0.00%     51.08% # Type of FU issued
system.switch_cpus.iq.FU_type_0::FloatMisc            0      0.00%     51.08% # Type of FU issued
system.switch_cpus.iq.FU_type_0::FloatSqrt            0      0.00%     51.08% # Type of FU issued
system.switch_cpus.iq.FU_type_0::SimdAdd            0      0.00%     51.08% # Type of FU issued
system.switch_cpus.iq.FU_type_0::SimdAddAcc            0      0.00%     51.08% # Type of FU issued
system.switch_cpus.iq.FU_type_0::SimdAlu            0      0.00%     51.08% # Type of FU issued
system.switch_cpus.iq.FU_type_0::SimdCmp            0      0.00%     51.08% # Type of FU issued
system.switch_cpus.iq.FU_type_0::SimdCvt            0      0.00%     51.08% # Type of FU issued
system.switch_cpus.iq.FU_type_0::SimdMisc            0      0.00%     51.08% # Type of FU issued
system.switch_cpus.iq.FU_type_0::SimdMult            0      0.00%     51.08% # Type of FU issued
system.switch_cpus.iq.FU_type_0::SimdMultAcc            0      0.00%     51.08% # Type of FU issued
system.switch_cpus.iq.FU_type_0::SimdShift            0      0.00%     51.08% # Type of FU issued
system.switch_cpus.iq.FU_type_0::SimdShiftAcc            0      0.00%     51.08% # Type of FU issued
system.switch_cpus.iq.FU_type_0::SimdDiv            0      0.00%     51.08% # Type of FU issued
system.switch_cpus.iq.FU_type_0::SimdSqrt            0      0.00%     51.08% # Type of FU issued
system.switch_cpus.iq.FU_type_0::SimdFloatAdd            0      0.00%     51.08% # Type of FU issued
system.switch_cpus.iq.FU_type_0::SimdFloatAlu            0      0.00%     51.08% # Type of FU issued
system.switch_cpus.iq.FU_type_0::SimdFloatCmp            0      0.00%     51.08% # Type of FU issued
system.switch_cpus.iq.FU_type_0::SimdFloatCvt            0      0.00%     51.08% # Type of FU issued
system.switch_cpus.iq.FU_type_0::SimdFloatDiv            0      0.00%     51.08% # Type of FU issued
system.switch_cpus.iq.FU_type_0::SimdFloatMisc            0      0.00%     51.08% # Type of FU issued
system.switch_cpus.iq.FU_type_0::SimdFloatMult            0      0.00%     51.08% # Type of FU issued
system.switch_cpus.iq.FU_type_0::SimdFloatMultAcc            0      0.00%     51.08% # Type of FU issued
system.switch_cpus.iq.FU_type_0::SimdFloatSqrt            0      0.00%     51.08% # Type of FU issued
system.switch_cpus.iq.FU_type_0::SimdReduceAdd            0      0.00%     51.08% # Type of FU issued
system.switch_cpus.iq.FU_type_0::SimdReduceAlu            0      0.00%     51.08% # Type of FU issued
system.switch_cpus.iq.FU_type_0::SimdReduceCmp            0      0.00%     51.08% # Type of FU issued
system.switch_cpus.iq.FU_type_0::SimdFloatReduceAdd            0      0.00%     51.08% # Type of FU issued
system.switch_cpus.iq.FU_type_0::SimdFloatReduceCmp            0      0.00%     51.08% # Type of FU issued
system.switch_cpus.iq.FU_type_0::SimdAes            0      0.00%     51.08% # Type of FU issued
system.switch_cpus.iq.FU_type_0::SimdAesMix            0      0.00%     51.08% # Type of FU issued
system.switch_cpus.iq.FU_type_0::SimdSha1Hash            0      0.00%     51.08% # Type of FU issued
system.switch_cpus.iq.FU_type_0::SimdSha1Hash2            0      0.00%     51.08% # Type of FU issued
system.switch_cpus.iq.FU_type_0::SimdSha256Hash            0      0.00%     51.08% # Type of FU issued
system.switch_cpus.iq.FU_type_0::SimdSha256Hash2            0      0.00%     51.08% # Type of FU issued
system.switch_cpus.iq.FU_type_0::SimdShaSigma2            0      0.00%     51.08% # Type of FU issued
system.switch_cpus.iq.FU_type_0::SimdShaSigma3            0      0.00%     51.08% # Type of FU issued
system.switch_cpus.iq.FU_type_0::SimdPredAlu            0      0.00%     51.08% # Type of FU issued
system.switch_cpus.iq.FU_type_0::MemRead       473021     44.01%     95.09% # Type of FU issued
system.switch_cpus.iq.FU_type_0::MemWrite        52810      4.91%    100.00% # Type of FU issued
system.switch_cpus.iq.FU_type_0::FloatMemRead            0      0.00%    100.00% # Type of FU issued
system.switch_cpus.iq.FU_type_0::FloatMemWrite            0      0.00%    100.00% # Type of FU issued
system.switch_cpus.iq.FU_type_0::IprAccess            0      0.00%    100.00% # Type of FU issued
system.switch_cpus.iq.FU_type_0::InstPrefetch            0      0.00%    100.00% # Type of FU issued
system.switch_cpus.iq.FU_type_0::total        1074918                       # Type of FU issued
system.switch_cpus.iq.fp_alu_accesses               0                       # Number of floating point alu accesses
system.switch_cpus.iq.fp_inst_queue_reads            0                       # Number of floating instruction queue reads
system.switch_cpus.iq.fp_inst_queue_wakeup_accesses            0                       # Number of floating instruction queue wakeup accesses
system.switch_cpus.iq.fp_inst_queue_writes            0                       # Number of floating instruction queue writes
system.switch_cpus.iq.fu_busy_cnt               23845                       # FU busy when requested
system.switch_cpus.iq.fu_busy_rate           0.022183                       # FU busy rate (busy events/executed inst)
system.switch_cpus.iq.fu_full::No_OpClass            0      0.00%      0.00% # attempts to use FU when none available
system.switch_cpus.iq.fu_full::IntAlu            4201     17.62%     17.62% # attempts to use FU when none available
system.switch_cpus.iq.fu_full::IntMult              0      0.00%     17.62% # attempts to use FU when none available
system.switch_cpus.iq.fu_full::IntDiv               0      0.00%     17.62% # attempts to use FU when none available
system.switch_cpus.iq.fu_full::FloatAdd             0      0.00%     17.62% # attempts to use FU when none available
system.switch_cpus.iq.fu_full::FloatCmp             0      0.00%     17.62% # attempts to use FU when none available
system.switch_cpus.iq.fu_full::FloatCvt             0      0.00%     17.62% # attempts to use FU when none available
system.switch_cpus.iq.fu_full::FloatMult            0      0.00%     17.62% # attempts to use FU when none available
system.switch_cpus.iq.fu_full::FloatMultAcc            0      0.00%     17.62% # attempts to use FU when none available
system.switch_cpus.iq.fu_full::FloatDiv             0      0.00%     17.62% # attempts to use FU when none available
system.switch_cpus.iq.fu_full::FloatMisc            0      0.00%     17.62% # attempts to use FU when none available
system.switch_cpus.iq.fu_full::FloatSqrt            0      0.00%     17.62% # attempts to use FU when none available
system.switch_cpus.iq.fu_full::SimdAdd              0      0.00%     17.62% # attempts to use FU when none available
system.switch_cpus.iq.fu_full::SimdAddAcc            0      0.00%     17.62% # attempts to use FU when none available
system.switch_cpus.iq.fu_full::SimdAlu              0      0.00%     17.62% # attempts to use FU when none available
system.switch_cpus.iq.fu_full::SimdCmp              0      0.00%     17.62% # attempts to use FU when none available
system.switch_cpus.iq.fu_full::SimdCvt              0      0.00%     17.62% # attempts to use FU when none available
system.switch_cpus.iq.fu_full::SimdMisc             0      0.00%     17.62% # attempts to use FU when none available
system.switch_cpus.iq.fu_full::SimdMult             0      0.00%     17.62% # attempts to use FU when none available
system.switch_cpus.iq.fu_full::SimdMultAcc            0      0.00%     17.62% # attempts to use FU when none available
system.switch_cpus.iq.fu_full::SimdShift            0      0.00%     17.62% # attempts to use FU when none available
system.switch_cpus.iq.fu_full::SimdShiftAcc            0      0.00%     17.62% # attempts to use FU when none available
system.switch_cpus.iq.fu_full::SimdDiv              0      0.00%     17.62% # attempts to use FU when none available
system.switch_cpus.iq.fu_full::SimdSqrt             0      0.00%     17.62% # attempts to use FU when none available
system.switch_cpus.iq.fu_full::SimdFloatAdd            0      0.00%     17.62% # attempts to use FU when none available
system.switch_cpus.iq.fu_full::SimdFloatAlu            0      0.00%     17.62% # attempts to use FU when none available
system.switch_cpus.iq.fu_full::SimdFloatCmp            0      0.00%     17.62% # attempts to use FU when none available
system.switch_cpus.iq.fu_full::SimdFloatCvt            0      0.00%     17.62% # attempts to use FU when none available
system.switch_cpus.iq.fu_full::SimdFloatDiv            0      0.00%     17.62% # attempts to use FU when none available
system.switch_cpus.iq.fu_full::SimdFloatMisc            0      0.00%     17.62% # attempts to use FU when none available
system.switch_cpus.iq.fu_full::SimdFloatMult            0      0.00%     17.62% # attempts to use FU when none available
system.switch_cpus.iq.fu_full::SimdFloatMultAcc            0      0.00%     17.62% # attempts to use FU when none available
system.switch_cpus.iq.fu_full::SimdFloatSqrt            0      0.00%     17.62% # attempts to use FU when none available
system.switch_cpus.iq.fu_full::SimdReduceAdd            0      0.00%     17.62% # attempts to use FU when none available
system.switch_cpus.iq.fu_full::SimdReduceAlu            0      0.00%     17.62% # attempts to use FU when none available
system.switch_cpus.iq.fu_full::SimdReduceCmp            0      0.00%     17.62% # attempts to use FU when none available
system.switch_cpus.iq.fu_full::SimdFloatReduceAdd            0      0.00%     17.62% # attempts to use FU when none available
system.switch_cpus.iq.fu_full::SimdFloatReduceCmp            0      0.00%     17.62% # attempts to use FU when none available
system.switch_cpus.iq.fu_full::SimdAes              0      0.00%     17.62% # attempts to use FU when none available
system.switch_cpus.iq.fu_full::SimdAesMix            0      0.00%     17.62% # attempts to use FU when none available
system.switch_cpus.iq.fu_full::SimdSha1Hash            0      0.00%     17.62% # attempts to use FU when none available
system.switch_cpus.iq.fu_full::SimdSha1Hash2            0      0.00%     17.62% # attempts to use FU when none available
system.switch_cpus.iq.fu_full::SimdSha256Hash            0      0.00%     17.62% # attempts to use FU when none available
system.switch_cpus.iq.fu_full::SimdSha256Hash2            0      0.00%     17.62% # attempts to use FU when none available
system.switch_cpus.iq.fu_full::SimdShaSigma2            0      0.00%     17.62% # attempts to use FU when none available
system.switch_cpus.iq.fu_full::SimdShaSigma3            0      0.00%     17.62% # attempts to use FU when none available
system.switch_cpus.iq.fu_full::SimdPredAlu            0      0.00%     17.62% # attempts to use FU when none available
system.switch_cpus.iq.fu_full::MemRead          19004     79.70%     97.32% # attempts to use FU when none available
system.switch_cpus.iq.fu_full::MemWrite           640      2.68%    100.00% # attempts to use FU when none available
system.switch_cpus.iq.fu_full::FloatMemRead            0      0.00%    100.00% # attempts to use FU when none available
system.switch_cpus.iq.fu_full::FloatMemWrite            0      0.00%    100.00% # attempts to use FU when none available
system.switch_cpus.iq.fu_full::IprAccess            0      0.00%    100.00% # attempts to use FU when none available
system.switch_cpus.iq.fu_full::InstPrefetch            0      0.00%    100.00% # attempts to use FU when none available
system.switch_cpus.iq.int_alu_accesses        1098731                       # Number of integer alu accesses
system.switch_cpus.iq.int_inst_queue_reads      2871315                       # Number of integer instruction queue reads
system.switch_cpus.iq.int_inst_queue_wakeup_accesses      1061817                       # Number of integer instruction queue wakeup accesses
system.switch_cpus.iq.int_inst_queue_writes      1215699                       # Number of integer instruction queue writes
system.switch_cpus.iq.iqInstsAdded            1107921                       # Number of instructions added to the IQ (excludes non-spec)
system.switch_cpus.iq.iqInstsIssued           1074918                       # Number of instructions issued
system.switch_cpus.iq.iqNonSpecInstsAdded            8                       # Number of non-speculative instructions added to the IQ
system.switch_cpus.iq.iqSquashedInstsExamined       107721                       # Number of squashed instructions iterated over during squash; mainly for profiling
system.switch_cpus.iq.iqSquashedInstsIssued          393                       # Number of squashed instructions issued
system.switch_cpus.iq.iqSquashedNonSpecRemoved            6                       # Number of squashed non-spec instructions that were removed
system.switch_cpus.iq.iqSquashedOperandsExamined        77008                       # Number of squashed operands that are examined and possibly removed from graph
system.switch_cpus.iq.issued_per_cycle::samples       697245                       # Number of insts issued each cycle
system.switch_cpus.iq.issued_per_cycle::mean     1.541665                       # Number of insts issued each cycle
system.switch_cpus.iq.issued_per_cycle::stdev     1.916518                       # Number of insts issued each cycle
system.switch_cpus.iq.issued_per_cycle::underflows            0      0.00%      0.00% # Number of insts issued each cycle
system.switch_cpus.iq.issued_per_cycle::0       352577     50.57%     50.57% # Number of insts issued each cycle
system.switch_cpus.iq.issued_per_cycle::1        63073      9.05%     59.61% # Number of insts issued each cycle
system.switch_cpus.iq.issued_per_cycle::2        72216     10.36%     69.97% # Number of insts issued each cycle
system.switch_cpus.iq.issued_per_cycle::3        73934     10.60%     80.57% # Number of insts issued each cycle
system.switch_cpus.iq.issued_per_cycle::4        68963      9.89%     90.47% # Number of insts issued each cycle
system.switch_cpus.iq.issued_per_cycle::5        38806      5.57%     96.03% # Number of insts issued each cycle
system.switch_cpus.iq.issued_per_cycle::6        20594      2.95%     98.98% # Number of insts issued each cycle
system.switch_cpus.iq.issued_per_cycle::7         4491      0.64%     99.63% # Number of insts issued each cycle
system.switch_cpus.iq.issued_per_cycle::8         2591      0.37%    100.00% # Number of insts issued each cycle
system.switch_cpus.iq.issued_per_cycle::overflows            0      0.00%    100.00% # Number of insts issued each cycle
system.switch_cpus.iq.issued_per_cycle::min_value            0                       # Number of insts issued each cycle
system.switch_cpus.iq.issued_per_cycle::max_value            8                       # Number of insts issued each cycle
system.switch_cpus.iq.issued_per_cycle::total       697245                       # Number of insts issued each cycle
system.switch_cpus.iq.rate                   1.520434                       # Inst issue rate
system.switch_cpus.iq.vec_alu_accesses              0                       # Number of vector alu accesses
system.switch_cpus.iq.vec_inst_queue_reads            0                       # Number of vector instruction queue reads
system.switch_cpus.iq.vec_inst_queue_wakeup_accesses            0                       # Number of vector instruction queue wakeup accesses
system.switch_cpus.iq.vec_inst_queue_writes            0                       # Number of vector instruction queue writes
system.switch_cpus.memDep0.conflictingLoads       131971                       # Number of conflicting loads.
system.switch_cpus.memDep0.conflictingStores         5080                       # Number of conflicting stores.
system.switch_cpus.memDep0.insertedLoads       480179                       # Number of loads inserted to the mem dependence unit.
system.switch_cpus.memDep0.insertedStores        55450                       # Number of stores inserted to the mem dependence unit.
system.switch_cpus.misc_regfile_reads         2279229                       # number of misc regfile reads
system.switch_cpus.misc_regfile_writes              1                       # number of misc regfile writes
system.switch_cpus.numCycles                   706981                       # number of cpu cycles simulated
system.switch_cpus.numWorkItemsCompleted            0                       # number of work items this cpu completed
system.switch_cpus.numWorkItemsStarted              0                       # number of work items this cpu started
system.switch_cpus.timesIdled                      49                       # Number of times that the entire CPU went into an idle state and unscheduled itself
system.switch_cpus.vec_regfile_writes              44                       # number of vector regfile writes
system.tol2bus.snoop_filter.hit_multi_requests            0                       # Number of requests hitting in the snoop filter with multiple (>1) holders of the requested data.
system.tol2bus.snoop_filter.hit_multi_snoops            0                       # Number of snoops hitting in the snoop filter with multiple (>1) holders of the requested data.
system.tol2bus.snoop_filter.hit_single_requests        14367                       # Number of requests hitting in the snoop filter with a single holder of the requested data.
system.tol2bus.snoop_filter.hit_single_snoops            0                       # Number of snoops hitting in the snoop filter with a single holder of the requested data.
system.tol2bus.snoop_filter.tot_requests        29068                       # Total number of requests made to the snoop filter.
system.tol2bus.snoop_filter.tot_snoops              0                       # Total number of snoops made to the snoop filter.
system.clk_domain.clock                          1000                       # Clock period in ticks
system.cpu.dcache.demand_hits::.cpu.data           10                       # number of demand (read+write) hits
system.cpu.dcache.demand_hits::.switch_cpus.data       326889                       # number of demand (read+write) hits
system.cpu.dcache.demand_hits::total           326899                       # number of demand (read+write) hits
system.cpu.dcache.overall_hits::.cpu.data           10                       # number of overall hits
system.cpu.dcache.overall_hits::.switch_cpus.data       326889                       # number of overall hits
system.cpu.dcache.overall_hits::total          326899                       # number of overall hits
system.cpu.dcache.demand_misses::.cpu.data            3                       # number of demand (read+write) misses
system.cpu.dcache.demand_misses::.switch_cpus.data        31615                       # number of demand (read+write) misses
system.cpu.dcache.demand_misses::total          31618                       # number of demand (read+write) misses
system.cpu.dcache.overall_misses::.cpu.data            3                       # number of overall misses
system.cpu.dcache.overall_misses::.switch_cpus.data        31615                       # number of overall misses
system.cpu.dcache.overall_misses::total         31618                       # number of overall misses
system.cpu.dcache.demand_miss_latency::.switch_cpus.data    506512450                       # number of demand (read+write) miss cycles
system.cpu.dcache.demand_miss_latency::total    506512450                       # number of demand (read+write) miss cycles
system.cpu.dcache.overall_miss_latency::.switch_cpus.data    506512450                       # number of overall miss cycles
system.cpu.dcache.overall_miss_latency::total    506512450                       # number of overall miss cycles
system.cpu.dcache.demand_accesses::.cpu.data           13                       # number of demand (read+write) accesses
system.cpu.dcache.demand_accesses::.switch_cpus.data       358504                       # number of demand (read+write) accesses
system.cpu.dcache.demand_accesses::total       358517                       # number of demand (read+write) accesses
system.cpu.dcache.overall_accesses::.cpu.data           13                       # number of overall (read+write) accesses
system.cpu.dcache.overall_accesses::.switch_cpus.data       358504                       # number of overall (read+write) accesses
system.cpu.dcache.overall_accesses::total       358517                       # number of overall (read+write) accesses
system.cpu.dcache.demand_miss_rate::.cpu.data     0.230769                       # miss rate for demand accesses
system.cpu.dcache.demand_miss_rate::.switch_cpus.data     0.088186                       # miss rate for demand accesses
system.cpu.dcache.demand_miss_rate::total     0.088191                       # miss rate for demand accesses
system.cpu.dcache.overall_miss_rate::.cpu.data     0.230769                       # miss rate for overall accesses
system.cpu.dcache.overall_miss_rate::.switch_cpus.data     0.088186                       # miss rate for overall accesses
system.cpu.dcache.overall_miss_rate::total     0.088191                       # miss rate for overall accesses
system.cpu.dcache.demand_avg_miss_latency::.switch_cpus.data 16021.269967                       # average overall miss latency
system.cpu.dcache.demand_avg_miss_latency::total 16019.749826                       # average overall miss latency
system.cpu.dcache.overall_avg_miss_latency::.switch_cpus.data 16021.269967                       # average overall miss latency
system.cpu.dcache.overall_avg_miss_latency::total 16019.749826                       # average overall miss latency
system.cpu.dcache.blocked_cycles::no_mshrs        30688                       # number of cycles access was blocked
system.cpu.dcache.blocked_cycles::no_targets            0                       # number of cycles access was blocked
system.cpu.dcache.blocked::no_mshrs              1746                       # number of cycles access was blocked
system.cpu.dcache.blocked::no_targets               0                       # number of cycles access was blocked
system.cpu.dcache.avg_blocked_cycles::no_mshrs    17.576174                       # average number of cycles each access was blocked
system.cpu.dcache.avg_blocked_cycles::no_targets          nan                       # average number of cycles each access was blocked
system.cpu.dcache.writebacks::.writebacks          596                       # number of writebacks
system.cpu.dcache.writebacks::total               596                       # number of writebacks
system.cpu.dcache.demand_mshr_hits::.switch_cpus.data        16995                       # number of demand (read+write) MSHR hits
system.cpu.dcache.demand_mshr_hits::total        16995                       # number of demand (read+write) MSHR hits
system.cpu.dcache.overall_mshr_hits::.switch_cpus.data        16995                       # number of overall MSHR hits
system.cpu.dcache.overall_mshr_hits::total        16995                       # number of overall MSHR hits
system.cpu.dcache.demand_mshr_misses::.switch_cpus.data        14620                       # number of demand (read+write) MSHR misses
system.cpu.dcache.demand_mshr_misses::total        14620                       # number of demand (read+write) MSHR misses
system.cpu.dcache.overall_mshr_misses::.switch_cpus.data        14620                       # number of overall MSHR misses
system.cpu.dcache.overall_mshr_misses::total        14620                       # number of overall MSHR misses
system.cpu.dcache.demand_mshr_miss_latency::.switch_cpus.data    262566377                       # number of demand (read+write) MSHR miss cycles
system.cpu.dcache.demand_mshr_miss_latency::total    262566377                       # number of demand (read+write) MSHR miss cycles
system.cpu.dcache.overall_mshr_miss_latency::.switch_cpus.data    262566377                       # number of overall MSHR miss cycles
system.cpu.dcache.overall_mshr_miss_latency::total    262566377                       # number of overall MSHR miss cycles
system.cpu.dcache.demand_mshr_miss_rate::.switch_cpus.data     0.040781                       # mshr miss rate for demand accesses
system.cpu.dcache.demand_mshr_miss_rate::total     0.040779                       # mshr miss rate for demand accesses
system.cpu.dcache.overall_mshr_miss_rate::.switch_cpus.data     0.040781                       # mshr miss rate for overall accesses
system.cpu.dcache.overall_mshr_miss_rate::total     0.040779                       # mshr miss rate for overall accesses
system.cpu.dcache.demand_avg_mshr_miss_latency::.switch_cpus.data 17959.396512                       # average overall mshr miss latency
system.cpu.dcache.demand_avg_mshr_miss_latency::total 17959.396512                       # average overall mshr miss latency
system.cpu.dcache.overall_avg_mshr_miss_latency::.switch_cpus.data 17959.396512                       # average overall mshr miss latency
system.cpu.dcache.overall_avg_mshr_miss_latency::total 17959.396512                       # average overall mshr miss latency
system.cpu.dcache.replacements                  14367                       # number of replacements
system.cpu.dcache.ReadReq_hits::.cpu.data            9                       # number of ReadReq hits
system.cpu.dcache.ReadReq_hits::.switch_cpus.data       278553                       # number of ReadReq hits
system.cpu.dcache.ReadReq_hits::total          278562                       # number of ReadReq hits
system.cpu.dcache.ReadReq_misses::.cpu.data            3                       # number of ReadReq misses
system.cpu.dcache.ReadReq_misses::.switch_cpus.data        30890                       # number of ReadReq misses
system.cpu.dcache.ReadReq_misses::total         30893                       # number of ReadReq misses
system.cpu.dcache.ReadReq_miss_latency::.switch_cpus.data    481275168                       # number of ReadReq miss cycles
system.cpu.dcache.ReadReq_miss_latency::total    481275168                       # number of ReadReq miss cycles
system.cpu.dcache.ReadReq_accesses::.cpu.data           12                       # number of ReadReq accesses(hits+misses)
system.cpu.dcache.ReadReq_accesses::.switch_cpus.data       309443                       # number of ReadReq accesses(hits+misses)
system.cpu.dcache.ReadReq_accesses::total       309455                       # number of ReadReq accesses(hits+misses)
system.cpu.dcache.ReadReq_miss_rate::.cpu.data     0.250000                       # miss rate for ReadReq accesses
system.cpu.dcache.ReadReq_miss_rate::.switch_cpus.data     0.099825                       # miss rate for ReadReq accesses
system.cpu.dcache.ReadReq_miss_rate::total     0.099830                       # miss rate for ReadReq accesses
system.cpu.dcache.ReadReq_avg_miss_latency::.switch_cpus.data 15580.290320                       # average ReadReq miss latency
system.cpu.dcache.ReadReq_avg_miss_latency::total 15578.777328                       # average ReadReq miss latency
system.cpu.dcache.ReadReq_mshr_hits::.switch_cpus.data        16714                       # number of ReadReq MSHR hits
system.cpu.dcache.ReadReq_mshr_hits::total        16714                       # number of ReadReq MSHR hits
system.cpu.dcache.ReadReq_mshr_misses::.switch_cpus.data        14176                       # number of ReadReq MSHR misses
system.cpu.dcache.ReadReq_mshr_misses::total        14176                       # number of ReadReq MSHR misses
system.cpu.dcache.ReadReq_mshr_miss_latency::.switch_cpus.data    239555211                       # number of ReadReq MSHR miss cycles
system.cpu.dcache.ReadReq_mshr_miss_latency::total    239555211                       # number of ReadReq MSHR miss cycles
system.cpu.dcache.ReadReq_mshr_miss_rate::.switch_cpus.data     0.045811                       # mshr miss rate for ReadReq accesses
system.cpu.dcache.ReadReq_mshr_miss_rate::total     0.045810                       # mshr miss rate for ReadReq accesses
system.cpu.dcache.ReadReq_avg_mshr_miss_latency::.switch_cpus.data 16898.646374                       # average ReadReq mshr miss latency
system.cpu.dcache.ReadReq_avg_mshr_miss_latency::total 16898.646374                       # average ReadReq mshr miss latency
system.cpu.dcache.WriteReq_hits::.cpu.data            1                       # number of WriteReq hits
system.cpu.dcache.WriteReq_hits::.switch_cpus.data        48336                       # number of WriteReq hits
system.cpu.dcache.WriteReq_hits::total          48337                       # number of WriteReq hits
system.cpu.dcache.WriteReq_misses::.switch_cpus.data          725                       # number of WriteReq misses
system.cpu.dcache.WriteReq_misses::total          725                       # number of WriteReq misses
system.cpu.dcache.WriteReq_miss_latency::.switch_cpus.data     25237282                       # number of WriteReq miss cycles
system.cpu.dcache.WriteReq_miss_latency::total     25237282                       # number of WriteReq miss cycles
system.cpu.dcache.WriteReq_accesses::.cpu.data            1                       # number of WriteReq accesses(hits+misses)
system.cpu.dcache.WriteReq_accesses::.switch_cpus.data        49061                       # number of WriteReq accesses(hits+misses)
system.cpu.dcache.WriteReq_accesses::total        49062                       # number of WriteReq accesses(hits+misses)
system.cpu.dcache.WriteReq_miss_rate::.switch_cpus.data     0.014778                       # miss rate for WriteReq accesses
system.cpu.dcache.WriteReq_miss_rate::total     0.014777                       # miss rate for WriteReq accesses
system.cpu.dcache.WriteReq_avg_miss_latency::.switch_cpus.data 34810.044138                       # average WriteReq miss latency
system.cpu.dcache.WriteReq_avg_miss_latency::total 34810.044138                       # average WriteReq miss latency
system.cpu.dcache.WriteReq_mshr_hits::.switch_cpus.data          281                       # number of WriteReq MSHR hits
system.cpu.dcache.WriteReq_mshr_hits::total          281                       # number of WriteReq MSHR hits
system.cpu.dcache.WriteReq_mshr_misses::.switch_cpus.data          444                       # number of WriteReq MSHR misses
system.cpu.dcache.WriteReq_mshr_misses::total          444                       # number of WriteReq MSHR misses
system.cpu.dcache.WriteReq_mshr_miss_latency::.switch_cpus.data     23011166                       # number of WriteReq MSHR miss cycles
system.cpu.dcache.WriteReq_mshr_miss_latency::total     23011166                       # number of WriteReq MSHR miss cycles
system.cpu.dcache.WriteReq_mshr_miss_rate::.switch_cpus.data     0.009050                       # mshr miss rate for WriteReq accesses
system.cpu.dcache.WriteReq_mshr_miss_rate::total     0.009050                       # mshr miss rate for WriteReq accesses
system.cpu.dcache.WriteReq_avg_mshr_miss_latency::.switch_cpus.data 51826.950450                       # average WriteReq mshr miss latency
system.cpu.dcache.WriteReq_avg_mshr_miss_latency::total 51826.950450                       # average WriteReq mshr miss latency
system.cpu.dcache.power_state.pwrStateResidencyTicks::UNDEFINED 318010090895                       # Cumulative time (in ticks) in various power states
system.cpu.dcache.tags.tagsinuse           249.693849                       # Cycle average of tags in use
system.cpu.dcache.tags.total_refs               62347                       # Total number of references to valid blocks.
system.cpu.dcache.tags.sampled_refs             14367                       # Sample count of references to valid blocks.
system.cpu.dcache.tags.avg_refs              4.339598                       # Average number of references to valid blocks.
system.cpu.dcache.tags.warmup_cycle      317781726665                       # Cycle when the warmup percentage was hit.
system.cpu.dcache.tags.occ_blocks::.cpu.data     2.024659                       # Average occupied blocks per requestor
system.cpu.dcache.tags.occ_blocks::.switch_cpus.data   247.669190                       # Average occupied blocks per requestor
system.cpu.dcache.tags.occ_percent::.cpu.data     0.007909                       # Average percentage of cache occupancy
system.cpu.dcache.tags.occ_percent::.switch_cpus.data     0.967458                       # Average percentage of cache occupancy
system.cpu.dcache.tags.occ_percent::total     0.975367                       # Average percentage of cache occupancy
system.cpu.dcache.tags.occ_task_id_blocks::1024          256                       # Occupied blocks per task id
system.cpu.dcache.tags.age_task_id_blocks_1024::0          163                       # Occupied blocks per task id
system.cpu.dcache.tags.age_task_id_blocks_1024::1           91                       # Occupied blocks per task id
system.cpu.dcache.tags.age_task_id_blocks_1024::2            2                       # Occupied blocks per task id
system.cpu.dcache.tags.occ_task_id_percent::1024            1                       # Percentage of cache occupancy per task id
system.cpu.dcache.tags.tag_accesses           2882759                       # Number of tag accesses
system.cpu.dcache.tags.data_accesses          2882759                       # Number of data accesses
system.cpu.dcache.tags.power_state.pwrStateResidencyTicks::UNDEFINED 318010090895                       # Cumulative time (in ticks) in various power states
system.cpu.dtb.instHits                             0                       # ITB inst hits
system.cpu.dtb.instMisses                           0                       # ITB inst misses
system.cpu.dtb.readHits                             0                       # DTB read hits
system.cpu.dtb.readMisses                           0                       # DTB read misses
system.cpu.dtb.writeHits                            0                       # DTB write hits
system.cpu.dtb.writeMisses                          0                       # DTB write misses
system.cpu.dtb.inserts                              0                       # Number of times an entry is inserted into the TLB
system.cpu.dtb.flushTlb                             2                       # Number of times complete TLB was flushed
system.cpu.dtb.flushTlbMva                          0                       # Number of times TLB was flushed by MVA
system.cpu.dtb.flushTlbMvaAsid                      0                       # Number of times TLB was flushed by MVA & ASID
system.cpu.dtb.flushTlbAsid                         0                       # Number of times TLB was flushed by ASID
system.cpu.dtb.flushedEntries                       0                       # Number of entries that have been flushed from TLB
system.cpu.dtb.alignFaults                          0                       # Number of TLB faults due to alignment restrictions
system.cpu.dtb.prefetchFaults                       0                       # Number of TLB faults due to prefetch
system.cpu.dtb.domainFaults                         0                       # Number of TLB faults due to domain restrictions
system.cpu.dtb.permsFaults                          0                       # Number of TLB faults due to permissions restrictions
system.cpu.dtb.readAccesses                         0                       # DTB read accesses
system.cpu.dtb.writeAccesses                        0                       # DTB write accesses
system.cpu.dtb.instAccesses                         0                       # ITB inst accesses
system.cpu.dtb.hits                                 0                       # Total TLB (inst and data) hits
system.cpu.dtb.misses                               0                       # Total TLB (inst and data) misses
system.cpu.dtb.accesses                             0                       # Total TLB (inst and data) accesses
system.cpu.dtb.stage2_mmu.stage2_tlb.instHits            0                       # ITB inst hits
system.cpu.dtb.stage2_mmu.stage2_tlb.instMisses            0                       # ITB inst misses
system.cpu.dtb.stage2_mmu.stage2_tlb.readHits            0                       # DTB read hits
system.cpu.dtb.stage2_mmu.stage2_tlb.readMisses            0                       # DTB read misses
system.cpu.dtb.stage2_mmu.stage2_tlb.writeHits            0                       # DTB write hits
system.cpu.dtb.stage2_mmu.stage2_tlb.writeMisses            0                       # DTB write misses
system.cpu.dtb.stage2_mmu.stage2_tlb.inserts            0                       # Number of times an entry is inserted into the TLB
system.cpu.dtb.stage2_mmu.stage2_tlb.flushTlb            0                       # Number of times complete TLB was flushed
system.cpu.dtb.stage2_mmu.stage2_tlb.flushTlbMva            0                       # Number of times TLB was flushed by MVA
system.cpu.dtb.stage2_mmu.stage2_tlb.flushTlbMvaAsid            0                       # Number of times TLB was flushed by MVA & ASID
system.cpu.dtb.stage2_mmu.stage2_tlb.flushTlbAsid            0                       # Number of times TLB was flushed by ASID
system.cpu.dtb.stage2_mmu.stage2_tlb.flushedEntries            0                       # Number of entries that have been flushed from TLB
system.cpu.dtb.stage2_mmu.stage2_tlb.alignFaults            0                       # Number of TLB faults due to alignment restrictions
system.cpu.dtb.stage2_mmu.stage2_tlb.prefetchFaults            0                       # Number of TLB faults due to prefetch
system.cpu.dtb.stage2_mmu.stage2_tlb.domainFaults            0                       # Number of TLB faults due to domain restrictions
system.cpu.dtb.stage2_mmu.stage2_tlb.permsFaults            0                       # Number of TLB faults due to permissions restrictions
system.cpu.dtb.stage2_mmu.stage2_tlb.readAccesses            0                       # DTB read accesses
system.cpu.dtb.stage2_mmu.stage2_tlb.writeAccesses            0                       # DTB write accesses
system.cpu.dtb.stage2_mmu.stage2_tlb.instAccesses            0                       # ITB inst accesses
system.cpu.dtb.stage2_mmu.stage2_tlb.hits            0                       # Total TLB (inst and data) hits
system.cpu.dtb.stage2_mmu.stage2_tlb.misses            0                       # Total TLB (inst and data) misses
system.cpu.dtb.stage2_mmu.stage2_tlb.accesses            0                       # Total TLB (inst and data) accesses
system.cpu.dtb.stage2_mmu.stage2_tlb.walker.walks            0                       # Table walker walks requested
system.cpu.dtb.stage2_mmu.stage2_tlb.walker.requestOrigin_Requested::Data            0                       # Table walker requests started/completed, data/inst
system.cpu.dtb.stage2_mmu.stage2_tlb.walker.requestOrigin_Requested::Inst            0                       # Table walker requests started/completed, data/inst
system.cpu.dtb.stage2_mmu.stage2_tlb.walker.requestOrigin_Requested::total            0                       # Table walker requests started/completed, data/inst
system.cpu.dtb.stage2_mmu.stage2_tlb.walker.requestOrigin_Completed::Data            0                       # Table walker requests started/completed, data/inst
system.cpu.dtb.stage2_mmu.stage2_tlb.walker.requestOrigin_Completed::Inst            0                       # Table walker requests started/completed, data/inst
system.cpu.dtb.stage2_mmu.stage2_tlb.walker.requestOrigin_Completed::total            0                       # Table walker requests started/completed, data/inst
system.cpu.dtb.stage2_mmu.stage2_tlb.walker.requestOrigin::total            0                       # Table walker requests started/completed, data/inst
system.cpu.dtb.stage2_mmu.stage2_tlb.walker.power_state.pwrStateResidencyTicks::UNDEFINED 318010090895                       # Cumulative time (in ticks) in various power states
system.cpu.dtb.walker.walks                         0                       # Table walker walks requested
system.cpu.dtb.walker.requestOrigin_Requested::Data            0                       # Table walker requests started/completed, data/inst
system.cpu.dtb.walker.requestOrigin_Requested::Inst            0                       # Table walker requests started/completed, data/inst
system.cpu.dtb.walker.requestOrigin_Requested::total            0                       # Table walker requests started/completed, data/inst
system.cpu.dtb.walker.requestOrigin_Completed::Data            0                       # Table walker requests started/completed, data/inst
system.cpu.dtb.walker.requestOrigin_Completed::Inst            0                       # Table walker requests started/completed, data/inst
system.cpu.dtb.walker.requestOrigin_Completed::total            0                       # Table walker requests started/completed, data/inst
system.cpu.dtb.walker.requestOrigin::total            0                       # Table walker requests started/completed, data/inst
system.cpu.dtb.walker.power_state.pwrStateResidencyTicks::UNDEFINED 318010090895                       # Cumulative time (in ticks) in various power states
system.cpu.icache.demand_hits::.cpu.inst           28                       # number of demand (read+write) hits
system.cpu.icache.demand_hits::.switch_cpus.inst       115279                       # number of demand (read+write) hits
system.cpu.icache.demand_hits::total           115307                       # number of demand (read+write) hits
system.cpu.icache.overall_hits::.cpu.inst           28                       # number of overall hits
system.cpu.icache.overall_hits::.switch_cpus.inst       115279                       # number of overall hits
system.cpu.icache.overall_hits::total          115307                       # number of overall hits
system.cpu.icache.demand_misses::.cpu.inst            2                       # number of demand (read+write) misses
system.cpu.icache.demand_misses::.switch_cpus.inst          101                       # number of demand (read+write) misses
system.cpu.icache.demand_misses::total            103                       # number of demand (read+write) misses
system.cpu.icache.overall_misses::.cpu.inst            2                       # number of overall misses
system.cpu.icache.overall_misses::.switch_cpus.inst          101                       # number of overall misses
system.cpu.icache.overall_misses::total           103                       # number of overall misses
system.cpu.icache.demand_miss_latency::.switch_cpus.inst      7927712                       # number of demand (read+write) miss cycles
system.cpu.icache.demand_miss_latency::total      7927712                       # number of demand (read+write) miss cycles
system.cpu.icache.overall_miss_latency::.switch_cpus.inst      7927712                       # number of overall miss cycles
system.cpu.icache.overall_miss_latency::total      7927712                       # number of overall miss cycles
system.cpu.icache.demand_accesses::.cpu.inst           30                       # number of demand (read+write) accesses
system.cpu.icache.demand_accesses::.switch_cpus.inst       115380                       # number of demand (read+write) accesses
system.cpu.icache.demand_accesses::total       115410                       # number of demand (read+write) accesses
system.cpu.icache.overall_accesses::.cpu.inst           30                       # number of overall (read+write) accesses
system.cpu.icache.overall_accesses::.switch_cpus.inst       115380                       # number of overall (read+write) accesses
system.cpu.icache.overall_accesses::total       115410                       # number of overall (read+write) accesses
system.cpu.icache.demand_miss_rate::.cpu.inst     0.066667                       # miss rate for demand accesses
system.cpu.icache.demand_miss_rate::.switch_cpus.inst     0.000875                       # miss rate for demand accesses
system.cpu.icache.demand_miss_rate::total     0.000892                       # miss rate for demand accesses
system.cpu.icache.overall_miss_rate::.cpu.inst     0.066667                       # miss rate for overall accesses
system.cpu.icache.overall_miss_rate::.switch_cpus.inst     0.000875                       # miss rate for overall accesses
system.cpu.icache.overall_miss_rate::total     0.000892                       # miss rate for overall accesses
system.cpu.icache.demand_avg_miss_latency::.switch_cpus.inst 78492.198020                       # average overall miss latency
system.cpu.icache.demand_avg_miss_latency::total 76968.077670                       # average overall miss latency
system.cpu.icache.overall_avg_miss_latency::.switch_cpus.inst 78492.198020                       # average overall miss latency
system.cpu.icache.overall_avg_miss_latency::total 76968.077670                       # average overall miss latency
system.cpu.icache.blocked_cycles::no_mshrs          568                       # number of cycles access was blocked
system.cpu.icache.blocked_cycles::no_targets            0                       # number of cycles access was blocked
system.cpu.icache.blocked::no_mshrs                 4                       # number of cycles access was blocked
system.cpu.icache.blocked::no_targets               0                       # number of cycles access was blocked
system.cpu.icache.avg_blocked_cycles::no_mshrs          142                       # average number of cycles each access was blocked
system.cpu.icache.avg_blocked_cycles::no_targets          nan                       # average number of cycles each access was blocked
system.cpu.icache.demand_mshr_hits::.switch_cpus.inst           25                       # number of demand (read+write) MSHR hits
system.cpu.icache.demand_mshr_hits::total           25                       # number of demand (read+write) MSHR hits
system.cpu.icache.overall_mshr_hits::.switch_cpus.inst           25                       # number of overall MSHR hits
system.cpu.icache.overall_mshr_hits::total           25                       # number of overall MSHR hits
system.cpu.icache.demand_mshr_misses::.switch_cpus.inst           76                       # number of demand (read+write) MSHR misses
system.cpu.icache.demand_mshr_misses::total           76                       # number of demand (read+write) MSHR misses
system.cpu.icache.overall_mshr_misses::.switch_cpus.inst           76                       # number of overall MSHR misses
system.cpu.icache.overall_mshr_misses::total           76                       # number of overall MSHR misses
system.cpu.icache.demand_mshr_miss_latency::.switch_cpus.inst      6369883                       # number of demand (read+write) MSHR miss cycles
system.cpu.icache.demand_mshr_miss_latency::total      6369883                       # number of demand (read+write) MSHR miss cycles
system.cpu.icache.overall_mshr_miss_latency::.switch_cpus.inst      6369883                       # number of overall MSHR miss cycles
system.cpu.icache.overall_mshr_miss_latency::total      6369883                       # number of overall MSHR miss cycles
system.cpu.icache.demand_mshr_miss_rate::.switch_cpus.inst     0.000659                       # mshr miss rate for demand accesses
system.cpu.icache.demand_mshr_miss_rate::total     0.000659                       # mshr miss rate for demand accesses
system.cpu.icache.overall_mshr_miss_rate::.switch_cpus.inst     0.000659                       # mshr miss rate for overall accesses
system.cpu.icache.overall_mshr_miss_rate::total     0.000659                       # mshr miss rate for overall accesses
system.cpu.icache.demand_avg_mshr_miss_latency::.switch_cpus.inst 83814.250000                       # average overall mshr miss latency
system.cpu.icache.demand_avg_mshr_miss_latency::total 83814.250000                       # average overall mshr miss latency
system.cpu.icache.overall_avg_mshr_miss_latency::.switch_cpus.inst 83814.250000                       # average overall mshr miss latency
system.cpu.icache.overall_avg_mshr_miss_latency::total 83814.250000                       # average overall mshr miss latency
system.cpu.icache.replacements                      0                       # number of replacements
system.cpu.icache.ReadReq_hits::.cpu.inst           28                       # number of ReadReq hits
system.cpu.icache.ReadReq_hits::.switch_cpus.inst       115279                       # number of ReadReq hits
system.cpu.icache.ReadReq_hits::total          115307                       # number of ReadReq hits
system.cpu.icache.ReadReq_misses::.cpu.inst            2                       # number of ReadReq misses
system.cpu.icache.ReadReq_misses::.switch_cpus.inst          101                       # number of ReadReq misses
system.cpu.icache.ReadReq_misses::total           103                       # number of ReadReq misses
system.cpu.icache.ReadReq_miss_latency::.switch_cpus.inst      7927712                       # number of ReadReq miss cycles
system.cpu.icache.ReadReq_miss_latency::total      7927712                       # number of ReadReq miss cycles
system.cpu.icache.ReadReq_accesses::.cpu.inst           30                       # number of ReadReq accesses(hits+misses)
system.cpu.icache.ReadReq_accesses::.switch_cpus.inst       115380                       # number of ReadReq accesses(hits+misses)
system.cpu.icache.ReadReq_accesses::total       115410                       # number of ReadReq accesses(hits+misses)
system.cpu.icache.ReadReq_miss_rate::.cpu.inst     0.066667                       # miss rate for ReadReq accesses
system.cpu.icache.ReadReq_miss_rate::.switch_cpus.inst     0.000875                       # miss rate for ReadReq accesses
system.cpu.icache.ReadReq_miss_rate::total     0.000892                       # miss rate for ReadReq accesses
system.cpu.icache.ReadReq_avg_miss_latency::.switch_cpus.inst 78492.198020                       # average ReadReq miss latency
system.cpu.icache.ReadReq_avg_miss_latency::total 76968.077670                       # average ReadReq miss latency
system.cpu.icache.ReadReq_mshr_hits::.switch_cpus.inst           25                       # number of ReadReq MSHR hits
system.cpu.icache.ReadReq_mshr_hits::total           25                       # number of ReadReq MSHR hits
system.cpu.icache.ReadReq_mshr_misses::.switch_cpus.inst           76                       # number of ReadReq MSHR misses
system.cpu.icache.ReadReq_mshr_misses::total           76                       # number of ReadReq MSHR misses
system.cpu.icache.ReadReq_mshr_miss_latency::.switch_cpus.inst      6369883                       # number of ReadReq MSHR miss cycles
system.cpu.icache.ReadReq_mshr_miss_latency::total      6369883                       # number of ReadReq MSHR miss cycles
system.cpu.icache.ReadReq_mshr_miss_rate::.switch_cpus.inst     0.000659                       # mshr miss rate for ReadReq accesses
system.cpu.icache.ReadReq_mshr_miss_rate::total     0.000659                       # mshr miss rate for ReadReq accesses
system.cpu.icache.ReadReq_avg_mshr_miss_latency::.switch_cpus.inst 83814.250000                       # average ReadReq mshr miss latency
system.cpu.icache.ReadReq_avg_mshr_miss_latency::total 83814.250000                       # average ReadReq mshr miss latency
system.cpu.icache.power_state.pwrStateResidencyTicks::UNDEFINED 318010090895                       # Cumulative time (in ticks) in various power states
system.cpu.icache.tags.tagsinuse            15.052479                       # Cycle average of tags in use
system.cpu.icache.tags.total_refs                   0                       # Total number of references to valid blocks.
system.cpu.icache.tags.sampled_refs                 0                       # Sample count of references to valid blocks.
system.cpu.icache.tags.avg_refs                   nan                       # Average number of references to valid blocks.
system.cpu.icache.tags.warmup_cycle      317781726342                       # Cycle when the warmup percentage was hit.
system.cpu.icache.tags.occ_blocks::.cpu.inst     1.999994                       # Average occupied blocks per requestor
system.cpu.icache.tags.occ_blocks::.switch_cpus.inst    13.052485                       # Average occupied blocks per requestor
system.cpu.icache.tags.occ_percent::.cpu.inst     0.003906                       # Average percentage of cache occupancy
system.cpu.icache.tags.occ_percent::.switch_cpus.inst     0.025493                       # Average percentage of cache occupancy
system.cpu.icache.tags.occ_percent::total     0.029399                       # Average percentage of cache occupancy
system.cpu.icache.tags.occ_task_id_blocks::1024           78                       # Occupied blocks per task id
system.cpu.icache.tags.age_task_id_blocks_1024::0           64                       # Occupied blocks per task id
system.cpu.icache.tags.age_task_id_blocks_1024::2           14                       # Occupied blocks per task id
system.cpu.icache.tags.occ_task_id_percent::1024     0.152344                       # Percentage of cache occupancy per task id
system.cpu.icache.tags.tag_accesses            923358                       # Number of tag accesses
system.cpu.icache.tags.data_accesses           923358                       # Number of data accesses
system.cpu.icache.tags.power_state.pwrStateResidencyTicks::UNDEFINED 318010090895                       # Cumulative time (in ticks) in various power states
system.cpu.itb.instHits                             0                       # ITB inst hits
system.cpu.itb.instMisses                           0                       # ITB inst misses
system.cpu.itb.readHits                             0                       # DTB read hits
system.cpu.itb.readMisses                           0                       # DTB read misses
system.cpu.itb.writeHits                            0                       # DTB write hits
system.cpu.itb.writeMisses                          0                       # DTB write misses
system.cpu.itb.inserts                              0                       # Number of times an entry is inserted into the TLB
system.cpu.itb.flushTlb                             2                       # Number of times complete TLB was flushed
system.cpu.itb.flushTlbMva                          0                       # Number of times TLB was flushed by MVA
system.cpu.itb.flushTlbMvaAsid                      0                       # Number of times TLB was flushed by MVA & ASID
system.cpu.itb.flushTlbAsid                         0                       # Number of times TLB was flushed by ASID
system.cpu.itb.flushedEntries                       0                       # Number of entries that have been flushed from TLB
system.cpu.itb.alignFaults                          0                       # Number of TLB faults due to alignment restrictions
system.cpu.itb.prefetchFaults                       0                       # Number of TLB faults due to prefetch
system.cpu.itb.domainFaults                         0                       # Number of TLB faults due to domain restrictions
system.cpu.itb.permsFaults                          0                       # Number of TLB faults due to permissions restrictions
system.cpu.itb.readAccesses                         0                       # DTB read accesses
system.cpu.itb.writeAccesses                        0                       # DTB write accesses
system.cpu.itb.instAccesses                         0                       # ITB inst accesses
system.cpu.itb.hits                                 0                       # Total TLB (inst and data) hits
system.cpu.itb.misses                               0                       # Total TLB (inst and data) misses
system.cpu.itb.accesses                             0                       # Total TLB (inst and data) accesses
system.cpu.itb.stage2_mmu.stage2_tlb.instHits            0                       # ITB inst hits
system.cpu.itb.stage2_mmu.stage2_tlb.instMisses            0                       # ITB inst misses
system.cpu.itb.stage2_mmu.stage2_tlb.readHits            0                       # DTB read hits
system.cpu.itb.stage2_mmu.stage2_tlb.readMisses            0                       # DTB read misses
system.cpu.itb.stage2_mmu.stage2_tlb.writeHits            0                       # DTB write hits
system.cpu.itb.stage2_mmu.stage2_tlb.writeMisses            0                       # DTB write misses
system.cpu.itb.stage2_mmu.stage2_tlb.inserts            0                       # Number of times an entry is inserted into the TLB
system.cpu.itb.stage2_mmu.stage2_tlb.flushTlb            0                       # Number of times complete TLB was flushed
system.cpu.itb.stage2_mmu.stage2_tlb.flushTlbMva            0                       # Number of times TLB was flushed by MVA
system.cpu.itb.stage2_mmu.stage2_tlb.flushTlbMvaAsid            0                       # Number of times TLB was flushed by MVA & ASID
system.cpu.itb.stage2_mmu.stage2_tlb.flushTlbAsid            0                       # Number of times TLB was flushed by ASID
system.cpu.itb.stage2_mmu.stage2_tlb.flushedEntries            0                       # Number of entries that have been flushed from TLB
system.cpu.itb.stage2_mmu.stage2_tlb.alignFaults            0                       # Number of TLB faults due to alignment restrictions
system.cpu.itb.stage2_mmu.stage2_tlb.prefetchFaults            0                       # Number of TLB faults due to prefetch
system.cpu.itb.stage2_mmu.stage2_tlb.domainFaults            0                       # Number of TLB faults due to domain restrictions
system.cpu.itb.stage2_mmu.stage2_tlb.permsFaults            0                       # Number of TLB faults due to permissions restrictions
system.cpu.itb.stage2_mmu.stage2_tlb.readAccesses            0                       # DTB read accesses
system.cpu.itb.stage2_mmu.stage2_tlb.writeAccesses            0                       # DTB write accesses
system.cpu.itb.stage2_mmu.stage2_tlb.instAccesses            0                       # ITB inst accesses
system.cpu.itb.stage2_mmu.stage2_tlb.hits            0                       # Total TLB (inst and data) hits
system.cpu.itb.stage2_mmu.stage2_tlb.misses            0                       # Total TLB (inst and data) misses
system.cpu.itb.stage2_mmu.stage2_tlb.accesses            0                       # Total TLB (inst and data) accesses
system.cpu.itb.stage2_mmu.stage2_tlb.walker.walks            0                       # Table walker walks requested
system.cpu.itb.stage2_mmu.stage2_tlb.walker.requestOrigin_Requested::Data            0                       # Table walker requests started/completed, data/inst
system.cpu.itb.stage2_mmu.stage2_tlb.walker.requestOrigin_Requested::Inst            0                       # Table walker requests started/completed, data/inst
system.cpu.itb.stage2_mmu.stage2_tlb.walker.requestOrigin_Requested::total            0                       # Table walker requests started/completed, data/inst
system.cpu.itb.stage2_mmu.stage2_tlb.walker.requestOrigin_Completed::Data            0                       # Table walker requests started/completed, data/inst
system.cpu.itb.stage2_mmu.stage2_tlb.walker.requestOrigin_Completed::Inst            0                       # Table walker requests started/completed, data/inst
system.cpu.itb.stage2_mmu.stage2_tlb.walker.requestOrigin_Completed::total            0                       # Table walker requests started/completed, data/inst
system.cpu.itb.stage2_mmu.stage2_tlb.walker.requestOrigin::total            0                       # Table walker requests started/completed, data/inst
system.cpu.itb.stage2_mmu.stage2_tlb.walker.power_state.pwrStateResidencyTicks::UNDEFINED 318010090895                       # Cumulative time (in ticks) in various power states
system.cpu.itb.walker.walks                         0                       # Table walker walks requested
system.cpu.itb.walker.requestOrigin_Requested::Data            0                       # Table walker requests started/completed, data/inst
system.cpu.itb.walker.requestOrigin_Requested::Inst            0                       # Table walker requests started/completed, data/inst
system.cpu.itb.walker.requestOrigin_Requested::total            0                       # Table walker requests started/completed, data/inst
system.cpu.itb.walker.requestOrigin_Completed::Data            0                       # Table walker requests started/completed, data/inst
system.cpu.itb.walker.requestOrigin_Completed::Inst            0                       # Table walker requests started/completed, data/inst
system.cpu.itb.walker.requestOrigin_Completed::total            0                       # Table walker requests started/completed, data/inst
system.cpu.itb.walker.requestOrigin::total            0                       # Table walker requests started/completed, data/inst
system.cpu.itb.walker.power_state.pwrStateResidencyTicks::UNDEFINED 318010090895                       # Cumulative time (in ticks) in various power states
system.cpu.power_state.numTransitions               1                       # Number of power state transitions
system.cpu.power_state.pwrStateResidencyTicks::ON 317781736000                       # Cumulative time (in ticks) in various power states
system.cpu.power_state.pwrStateResidencyTicks::OFF    228354895                       # Cumulative time (in ticks) in various power states
system.cpu.thread_0.numInsts                        0                       # Number of Instructions committed
system.cpu.thread_0.numOps                          0                       # Number of Ops committed
system.cpu.thread_0.numMemRefs                      0                       # Number of Memory References
system.cpu_clk_domain.clock                       323                       # Clock period in ticks
system.cpu_voltage_domain.voltage                   1                       # Voltage in Volts
system.l2.demand_hits::.switch_cpus.data        12753                       # number of demand (read+write) hits
system.l2.demand_hits::total                    12753                       # number of demand (read+write) hits
system.l2.overall_hits::.switch_cpus.data        12753                       # number of overall hits
system.l2.overall_hits::total                   12753                       # number of overall hits
system.l2.demand_misses::.cpu.inst                  2                       # number of demand (read+write) misses
[...]
system.switch_cpus.dtb.walker.requestOrigin_Completed::total            0                       # Table walker requests started/completed, data/inst
system.switch_cpus.dtb.walker.requestOrigin::total            0                       # Table walker requests started/completed, data/inst
system.switch_cpus.dtb.walker.power_state.pwrStateResidencyTicks::UNDEFINED   2512027525                       # Cumulative time (in ticks) in various power states
system.switch_cpus.fetch.icacheStallCycles      1384308                       # Number of cycles fetch is stalled on an Icache miss
system.switch_cpus.fetch.insts               11869703                       # Number of instructions fetch has processed
system.switch_cpus.fetch.branches             1441229                       # Number of branches that fetch encountered
system.switch_cpus.fetch.predictedBranches       990968                       # Number of branches that fetch has predicted taken
system.switch_cpus.fetch.cycles               6365885                       # Number of cycles fetch has run and was not squashing or blocked
system.switch_cpus.fetch.squashCycles           44586                       # Number of cycles fetch has spent squashing
system.switch_cpus.fetch.cacheLines           1369797                       # Number of cache lines fetched
system.switch_cpus.fetch.icacheSquashes          5597                       # Number of outstanding Icache misses that were squashed
system.switch_cpus.fetch.nisnDist::samples      7772486                       # Number of instructions fetched each cycle (Total)
system.switch_cpus.fetch.nisnDist::mean      1.527209                       # Number of instructions fetched each cycle (Total)
system.switch_cpus.fetch.nisnDist::stdev     2.683517                       # Number of instructions fetched each cycle (Total)
system.switch_cpus.fetch.nisnDist::underflows            0      0.00%      0.00% # Number of instructions fetched each cycle (Total)
system.switch_cpus.fetch.nisnDist::0          5475082     70.44%     70.44% # Number of instructions fetched each cycle (Total)
system.switch_cpus.fetch.nisnDist::1           193799      2.49%     72.94% # Number of instructions fetched each cycle (Total)
system.switch_cpus.fetch.nisnDist::2           122577      1.58%     74.51% # Number of instructions fetched each cycle (Total)
system.switch_cpus.fetch.nisnDist::3           335229      4.31%     78.83% # Number of instructions fetched each cycle (Total)
system.switch_cpus.fetch.nisnDist::4           430164      5.53%     84.36% # Number of instructions fetched each cycle (Total)
system.switch_cpus.fetch.nisnDist::5            97989      1.26%     85.62% # Number of instructions fetched each cycle (Total)
system.switch_cpus.fetch.nisnDist::6           215075      2.77%     88.39% # Number of instructions fetched each cycle (Total)
system.switch_cpus.fetch.nisnDist::7           296052      3.81%     92.20% # Number of instructions fetched each cycle (Total)
system.switch_cpus.fetch.nisnDist::8           606519      7.80%    100.00% # Number of instructions fetched each cycle (Total)
system.switch_cpus.fetch.nisnDist::overflows            0      0.00%    100.00% # Number of instructions fetched each cycle (Total)
system.switch_cpus.fetch.nisnDist::min_value            0                       # Number of instructions fetched each cycle (Total)
system.switch_cpus.fetch.nisnDist::max_value            8                       # Number of instructions fetched each cycle (Total)
system.switch_cpus.fetch.nisnDist::total      7772486                       # Number of instructions fetched each cycle (Total)
system.switch_cpus.fetch.branchRate          0.185315                       # Number of branch fetches per cycle
system.switch_cpus.fetch.rate                1.526223                       # Number of inst fetches per cycle
system.switch_cpus.itb.instHits                     0                       # ITB inst hits
system.switch_cpus.itb.instMisses                   0                       # ITB inst misses
system.switch_cpus.itb.readHits                     0                       # DTB read hits
system.switch_cpus.itb.readMisses                   0                       # DTB read misses
system.switch_cpus.itb.writeHits                    0                       # DTB write hits
system.switch_cpus.itb.writeMisses                  0                       # DTB write misses
system.switch_cpus.itb.inserts                      0                       # Number of times an entry is inserted into the TLB
system.switch_cpus.itb.flushTlb                     0                       # Number of times complete TLB was flushed
system.switch_cpus.itb.flushTlbMva                  0                       # Number of times TLB was flushed by MVA
system.switch_cpus.itb.flushTlbMvaAsid              0                       # Number of times TLB was flushed by MVA & ASID
system.switch_cpus.itb.flushTlbAsid                 0                       # Number of times TLB was flushed by ASID
system.switch_cpus.itb.flushedEntries               0                       # Number of entries that have been flushed from TLB
system.switch_cpus.itb.alignFaults                  0                       # Number of TLB faults due to alignment restrictions
system.switch_cpus.itb.prefetchFaults               0                       # Number of TLB faults due to prefetch
system.switch_cpus.itb.domainFaults                 0                       # Number of TLB faults due to domain restrictions
system.switch_cpus.itb.permsFaults                  0                       # Number of TLB faults due to permissions restrictions
system.switch_cpus.itb.readAccesses                 0                       # DTB read accesses
system.switch_cpus.itb.writeAccesses                0                       # DTB write accesses
system.switch_cpus.itb.instAccesses                 0                       # ITB inst accesses
system.switch_cpus.itb.hits                         0                       # Total TLB (inst and data) hits
system.switch_cpus.itb.misses                       0                       # Total TLB (inst and data) misses
system.switch_cpus.itb.accesses                     0                       # Total TLB (inst and data) accesses
system.switch_cpus.itb.stage2_mmu.stage2_tlb.instHits            0                       # ITB inst hits
system.switch_cpus.itb.stage2_mmu.stage2_tlb.instMisses            0                       # ITB inst misses
system.switch_cpus.itb.stage2_mmu.stage2_tlb.readHits            0                       # DTB read hits
system.switch_cpus.itb.stage2_mmu.stage2_tlb.readMisses            0                       # DTB read misses
system.switch_cpus.itb.stage2_mmu.stage2_tlb.writeHits            0                       # DTB write hits
system.switch_cpus.itb.stage2_mmu.stage2_tlb.writeMisses            0                       # DTB write misses
system.switch_cpus.itb.stage2_mmu.stage2_tlb.inserts            0                       # Number of times an entry is inserted into the TLB
system.switch_cpus.itb.stage2_mmu.stage2_tlb.flushTlb            0                       # Number of times complete TLB was flushed
system.switch_cpus.itb.stage2_mmu.stage2_tlb.flushTlbMva            0                       # Number of times TLB was flushed by MVA
system.switch_cpus.itb.stage2_mmu.stage2_tlb.flushTlbMvaAsid            0                       # Number of times TLB was flushed by MVA & ASID
system.switch_cpus.itb.stage2_mmu.stage2_tlb.flushTlbAsid            0                       # Number of times TLB was flushed by ASID
system.switch_cpus.itb.stage2_mmu.stage2_tlb.flushedEntries            0                       # Number of entries that have been flushed from TLB
system.switch_cpus.itb.stage2_mmu.stage2_tlb.alignFaults            0                       # Number of TLB faults due to alignment restrictions
system.switch_cpus.itb.stage2_mmu.stage2_tlb.prefetchFaults            0                       # Number of TLB faults due to prefetch
system.switch_cpus.itb.stage2_mmu.stage2_tlb.domainFaults            0                       # Number of TLB faults due to domain restrictions
system.switch_cpus.itb.stage2_mmu.stage2_tlb.permsFaults            0                       # Number of TLB faults due to permissions restrictions
system.switch_cpus.itb.stage2_mmu.stage2_tlb.readAccesses            0                       # DTB read accesses
system.switch_cpus.itb.stage2_mmu.stage2_tlb.writeAccesses            0                       # DTB write accesses
system.switch_cpus.itb.stage2_mmu.stage2_tlb.instAccesses            0                       # ITB inst accesses
system.switch_cpus.itb.stage2_mmu.stage2_tlb.hits            0                       # Total TLB (inst and data) hits
system.switch_cpus.itb.stage2_mmu.stage2_tlb.misses            0                       # Total TLB (inst and data) misses
system.switch_cpus.itb.stage2_mmu.stage2_tlb.accesses            0                       # Total TLB (inst and data) accesses
system.switch_cpus.itb.stage2_mmu.stage2_tlb.walker.walks            0                       # Table walker walks requested
system.switch_cpus.itb.stage2_mmu.stage2_tlb.walker.requestOrigin_Requested::Data            0                       # Table walker requests started/completed, data/inst
system.switch_cpus.itb.stage2_mmu.stage2_tlb.walker.requestOrigin_Requested::Inst            0                       # Table walker requests started/completed, data/inst
system.switch_cpus.itb.stage2_mmu.stage2_tlb.walker.requestOrigin_Requested::total            0                       # Table walker requests started/completed, data/inst
system.switch_cpus.itb.stage2_mmu.stage2_tlb.walker.requestOrigin_Completed::Data            0                       # Table walker requests started/completed, data/inst
system.switch_cpus.itb.stage2_mmu.stage2_tlb.walker.requestOrigin_Completed::Inst            0                       # Table walker requests started/completed, data/inst
system.switch_cpus.itb.stage2_mmu.stage2_tlb.walker.requestOrigin_Completed::total            0                       # Table walker requests started/completed, data/inst
system.switch_cpus.itb.stage2_mmu.stage2_tlb.walker.requestOrigin::total            0                       # Table walker requests started/completed, data/inst
system.switch_cpus.itb.stage2_mmu.stage2_tlb.walker.power_state.pwrStateResidencyTicks::UNDEFINED   2512027525                       # Cumulative time (in ticks) in various power states
system.switch_cpus.itb.walker.walks                 0                       # Table walker walks requested
system.switch_cpus.itb.walker.requestOrigin_Requested::Data            0                       # Table walker requests started/completed, data/inst
system.switch_cpus.itb.walker.requestOrigin_Requested::Inst            0                       # Table walker requests started/completed, data/inst
system.switch_cpus.itb.walker.requestOrigin_Requested::total            0                       # Table walker requests started/completed, data/inst
system.switch_cpus.itb.walker.requestOrigin_Completed::Data            0                       # Table walker requests started/completed, data/inst
system.switch_cpus.itb.walker.requestOrigin_Completed::Inst            0                       # Table walker requests started/completed, data/inst
system.switch_cpus.itb.walker.requestOrigin_Completed::total            0                       # Table walker requests started/completed, data/inst
system.switch_cpus.itb.walker.requestOrigin::total            0                       # Table walker requests started/completed, data/inst
system.switch_cpus.itb.walker.power_state.pwrStateResidencyTicks::UNDEFINED   2512027525                       # Cumulative time (in ticks) in various power states
system.switch_cpus.lsq0.forwLoads             1667290                       # Number of loads that had data forwarded from stores
system.switch_cpus.lsq0.squashedLoads          453819                       # Number of loads squashed
system.switch_cpus.lsq0.ignoredResponses         2061                       # Number of memory responses ignored because the instruction is squashed
system.switch_cpus.lsq0.memOrderViolation          272                       # Number of memory ordering violations
system.switch_cpus.lsq0.squashedStores         102529                       # Number of stores squashed
system.switch_cpus.lsq0.rescheduledLoads            5                       # Number of loads that were rescheduled
system.switch_cpus.lsq0.blockedByCache            543                       # Number of times an access to memory failed due to the cache being blocked
system.switch_cpus.power_state.pwrStateResidencyTicks::OFF   2512027525                       # Cumulative time (in ticks) in various power states
system.switch_cpus.rename.squashCycles          22257                       # Number of cycles rename is squashing
system.switch_cpus.rename.idleCycles           764949                       # Number of cycles rename is idle
system.switch_cpus.rename.blockCycles         1297487                       # Number of cycles rename is blocking
system.switch_cpus.rename.serializeStallCycles         1928                       # count of cycles rename stalledfor serializing inst
system.switch_cpus.rename.runCycles           1518338                       # Number of cycles rename is running
system.switch_cpus.rename.unblockCycles       4167527                       # Number of cycles rename is unblocking
system.switch_cpus.rename.renamedInsts       11160479                       # Number of instructions processed by rename
system.switch_cpus.rename.ROBFullEvents            66                       # Number of times rename has blocked due to ROB full
system.switch_cpus.rename.IQFullEvents          87603                       # Number of times rename has blocked due to IQ full
system.switch_cpus.rename.LQFullEvents        4056674                       # Number of times rename has blocked due to LQ full
system.switch_cpus.rename.SQFullEvents          45713                       # Number of times rename has blocked due to SQ full
system.switch_cpus.rename.renamedOperands     12933175                       # Number of destination operands rename has renamed
system.switch_cpus.rename.lookups            15983434                       # Number of register rename lookups that rename has made
system.switch_cpus.rename.intLookups         11998110                       # Number of integer rename lookups
system.switch_cpus.rename.vecLookups               54                       # Number of vector rename lookups
system.switch_cpus.rename.committedMaps      11665736                       # Number of HB maps that are committed
system.switch_cpus.rename.undoneMaps          1267403                       # Number of HB maps that are undone due to squashing
system.switch_cpus.rename.serializing              18                       # count of serializing insts renamed
system.switch_cpus.rename.tempSerializing            6                       # count of temporary serializing insts renamed
system.switch_cpus.rename.skidInsts           2100711                       # count of insts added to the skid buffer
system.switch_cpus.rob.reads                 17869531                       # The number of ROB reads
system.switch_cpus.rob.writes                22324914                       # The number of ROB writes
system.switch_cpus.thread_0.numInsts         10000001                       # Number of Instructions committed
system.switch_cpus.thread_0.numOps           10000167                       # Number of Ops committed
system.switch_cpus.thread_0.numMemRefs              0                       # Number of Memory References
system.tol2bus.trans_dist::ReadResp            186266                       # Transaction distribution
system.tol2bus.trans_dist::WritebackDirty       164687                       # Transaction distribution
system.tol2bus.trans_dist::CleanEvict           37966                       # Transaction distribution
system.tol2bus.trans_dist::HardPFReq             9217                       # Transaction distribution
system.tol2bus.trans_dist::ReadExReq             4218                       # Transaction distribution
system.tol2bus.trans_dist::ReadExResp            4218                       # Transaction distribution
system.tol2bus.trans_dist::ReadCleanReq            29                       # Transaction distribution
system.tol2bus.trans_dist::ReadSharedReq       186239                       # Transaction distribution
system.tol2bus.pkt_count_system.cpu.icache.mem_side_port::system.l2.cpu_side_port           58                       # Packet count per connected requestor and responder (bytes)
system.tol2bus.pkt_count_system.cpu.dcache.mem_side_port::system.l2.cpu_side_port       571367                       # Packet count per connected requestor and responder (bytes)
system.tol2bus.pkt_count::total                571425                       # Packet count per connected requestor and responder (bytes)
system.tol2bus.pkt_size_system.cpu.icache.mem_side_port::system.l2.cpu_side_port         3712                       # Cumulative packet size per connected requestor and responder (bytes)
system.tol2bus.pkt_size_system.cpu.dcache.mem_side_port::system.l2.cpu_side_port     45405440                       # Cumulative packet size per connected requestor and responder (bytes)
system.tol2bus.pkt_size::total               45409152                       # Cumulative packet size per connected requestor and responder (bytes)
system.tol2bus.snoops                           21415                       # Total snoops (count)
system.tol2bus.snoopTraffic                     52736                       # Total snoop traffic (bytes)
system.tol2bus.snoop_fanout::samples           211901                       # Request fanout histogram
system.tol2bus.snoop_fanout::mean            0.000387                       # Request fanout histogram
system.tol2bus.snoop_fanout::stdev           0.019668                       # Request fanout histogram
system.tol2bus.snoop_fanout::underflows             0      0.00%      0.00% # Request fanout histogram
system.tol2bus.snoop_fanout::0                 211819     99.96%     99.96% # Request fanout histogram
system.tol2bus.snoop_fanout::1                     82      0.04%    100.00% # Request fanout histogram
system.tol2bus.snoop_fanout::2                      0      0.00%    100.00% # Request fanout histogram
system.tol2bus.snoop_fanout::overflows              0      0.00%    100.00% # Request fanout histogram
system.tol2bus.snoop_fanout::min_value              0                       # Request fanout histogram
system.tol2bus.snoop_fanout::max_value              1                       # Request fanout histogram
system.tol2bus.snoop_fanout::total             211901                       # Request fanout histogram
system.tol2bus.power_state.pwrStateResidencyTicks::UNDEFINED   2512027525                       # Cumulative time (in ticks) in various power states
system.tol2bus.reqLayer0.occupancy          335287243                       # Layer occupancy (ticks)
system.tol2bus.reqLayer0.utilization             13.3                       # Layer utilization (%)
system.tol2bus.respLayer0.occupancy             46835                       # Layer occupancy (ticks)
system.tol2bus.respLayer0.utilization             0.0                       # Layer utilization (%)
system.tol2bus.respLayer1.occupancy         307584825                       # Layer occupancy (ticks)
system.tol2bus.respLayer1.utilization            12.2                       # Layer utilization (%)
system.voltage_domain.voltage                       1                       # Voltage in Volts

---------- End Simulation Statistics   ----------
