
---------- Begin Simulation Statistics ----------
final_tick                               160000084000                       # Number of ticks from beginning of simulation (restored from checkpoints and never reset)
host_inst_rate                                 334907                       # Simulator instruction rate (inst/s)
host_mem_usage                               16985488                       # Number of bytes of host memory used
host_op_rate                                   370432                       # Simulator op (including micro ops) rate (op/s)
host_seconds                                     2.99                       # Real time elapsed on the host
host_tick_rate                               77927448                       # Simulator tick rate (ticks/s)
sim_freq                                 1000000000000                       # Frequency of simulated ticks
sim_insts                                     1000019                       # Number of instructions simulated
sim_ops                                       1106118                       # Number of ops (including micro ops) simulated
sim_seconds                                  0.000233                       # Number of seconds simulated
sim_ticks                                   232694000                       # Number of ticks simulated
system.cpu.Branches                                 2                       # Number of branches fetched
system.cpu.committedInsts                          19                       # Number of instructions committed
system.cpu.committedOps                            25                       # Number of ops (including micro ops) committed
system.cpu.idle_fraction                            0                       # Percentage of idle cycles
system.cpu.not_idle_fraction                        1                       # Percentage of non-idle cycles
system.cpu.numCycles                               25                       # number of cpu cycles simulated
system.cpu.numWorkItemsCompleted                    0                       # number of work items this cpu completed
system.cpu.numWorkItemsStarted                      0                       # number of work items this cpu started
system.cpu.num_busy_cycles                         25                       # Number of busy cycles
system.cpu.num_conditional_control_insts            0                       # number of instructions that are conditional controls
system.cpu.num_fp_alu_accesses                      0                       # Number of float alu accesses
system.cpu.num_fp_insts                             0                       # number of float instructions
system.cpu.num_fp_register_reads                    0                       # number of times the floating registers were read
system.cpu.num_fp_register_writes                   0                       # number of times the floating registers were written
system.cpu.num_func_calls                           2                       # number of times a function call or return occured
system.cpu.num_idle_cycles                          0                       # Number of idle cycles
system.cpu.num_int_alu_accesses                    25                       # Number of integer alu accesses
system.cpu.num_int_insts                           25                       # number of integer instructions
system.cpu.num_int_register_reads                  33                       # number of times the integer registers were read
system.cpu.num_int_register_writes                 16                       # number of times the integer registers were written
system.cpu.num_load_insts                           3                       # Number of load instructions
system.cpu.num_mem_refs                            12                       # number of memory refs
system.cpu.num_store_insts                          9                       # Number of store instructions
system.cpu.num_vec_alu_accesses                     0                       # Number of vector alu accesses
system.cpu.num_vec_insts                            0                       # number of vector instructions
system.cpu.num_vec_register_reads                   0                       # number of times the vector registers were read
system.cpu.num_vec_register_writes                  0                       # number of times the vector registers were written
system.cpu.op_class::No_OpClass                     0      0.00%      0.00% # Class of executed instruction
system.cpu.op_class::IntAlu                        13     52.00%     52.00% # Class of executed instruction
system.cpu.op_class::IntMult                        0      0.00%     52.00% # Class of executed instruction
system.cpu.op_class::IntDiv                         0      0.00%     52.00% # Class of executed instruction
system.cpu.op_class::FloatAdd                       0      0.00%     52.00% # Class of executed instruction
system.cpu.op_class::FloatCmp                       0      0.00%     52.00% # Class of executed instruction
system.cpu.op_class::FloatCvt                       0      0.00%     52.00% # Class of executed instruction
system.cpu.op_class::FloatMult                      0      0.00%     52.00% # Class of executed instruction
system.cpu.op_class::FloatMultAcc                   0      0.00%     52.00% # Class of executed instruction
system.cpu.op_class::FloatDiv                       0      0.00%     52.00% # Class of executed instruction
system.cpu.op_class::FloatMisc                      0      0.00%     52.00% # Class of executed instruction
system.cpu.op_class::FloatSqrt                      0      0.00%     52.00% # Class of executed instruction
system.cpu.op_class::SimdAdd                        0      0.00%     52.00% # Class of executed instruction
system.cpu.op_class::SimdAddAcc                     0      0.00%     52.00% # Class of executed instruction
system.cpu.op_class::SimdAlu                        0      0.00%     52.00% # Class of executed instruction
system.cpu.op_class::SimdCmp                        0      0.00%     52.00% # Class of executed instruction
system.cpu.op_class::SimdCvt                        0      0.00%     52.00% # Class of executed instruction
system.cpu.op_class::SimdMisc                       0      0.00%     52.00% # Class of executed instruction
system.cpu.op_class::SimdMult                       0      0.00%     52.00% # Class of executed instruction
system.cpu.op_class::SimdMultAcc                    0      0.00%     52.00% # Class of executed instruction
system.cpu.op_class::SimdShift                      0      0.00%     52.00% # Class of executed instruction
system.cpu.op_class::SimdShiftAcc                   0      0.00%     52.00% # Class of executed instruction
system.cpu.op_class::SimdDiv                        0      0.00%     52.00% # Class of executed instruction
system.cpu.op_class::SimdSqrt                       0      0.00%     52.00% # Class of executed instruction
system.cpu.op_class::SimdFloatAdd                   0      0.00%     52.00% # Class of executed instruction
system.cpu.op_class::SimdFloatAlu                   0      0.00%     52.00% # Class of executed instruction
system.cpu.op_class::SimdFloatCmp                   0      0.00%     52.00% # Class of executed instruction
system.cpu.op_class::SimdFloatCvt                   0      0.00%     52.00% # Class of executed instruction
system.cpu.op_class::SimdFloatDiv                   0      0.00%     52.00% # Class of executed instruction
system.cpu.op_class::SimdFloatMisc                  0      0.00%     52.00% # Class of executed instruction
system.cpu.op_class::SimdFloatMult                  0      0.00%     52.00% # Class of executed instruction
system.cpu.op_class::SimdFloatMultAcc               0      0.00%     52.00% # Class of executed instruction
system.cpu.op_class::SimdFloatSqrt                  0      0.00%     52.00% # Class of executed instruction
system.cpu.op_class::SimdReduceAdd                  0      0.00%     52.00% # Class of executed instruction
system.cpu.op_class::SimdReduceAlu                  0      0.00%     52.00% # Class of executed instruction
system.cpu.op_class::SimdReduceCmp                  0      0.00%     52.00% # Class of executed instruction
system.cpu.op_class::SimdFloatReduceAdd             0      0.00%     52.00% # Class of executed instruction
system.cpu.op_class::SimdFloatReduceCmp             0      0.00%     52.00% # Class of executed instruction
system.cpu.op_class::SimdAes                        0      0.00%     52.00% # Class of executed instruction
system.cpu.op_class::SimdAesMix                     0      0.00%     52.00% # Class of executed instruction
system.cpu.op_class::SimdSha1Hash                   0      0.00%     52.00% # Class of executed instruction
system.cpu.op_class::SimdSha1Hash2                  0      0.00%     52.00% # Class of executed instruction
system.cpu.op_class::SimdSha256Hash                 0      0.00%     52.00% # Class of executed instruction
system.cpu.op_class::SimdSha256Hash2                0      0.00%     52.00% # Class of executed instruction
system.cpu.op_class::SimdShaSigma2                  0      0.00%     52.00% # Class of executed instruction
system.cpu.op_class::SimdShaSigma3                  0      0.00%     52.00% # Class of executed instruction
system.cpu.op_class::SimdPredAlu                    0      0.00%     52.00% # Class of executed instruction
system.cpu.op_class::MemRead                        3     12.00%     64.00% # Class of executed instruction
system.cpu.op_class::MemWrite                       9     36.00%    100.00% # Class of executed instruction
system.cpu.op_class::FloatMemRead                   0      0.00%    100.00% # Class of executed instruction
system.cpu.op_class::FloatMemWrite                  0      0.00%    100.00% # Class of executed instruction
system.cpu.op_class::IprAccess                      0      0.00%    100.00% # Class of executed instruction
system.cpu.op_class::InstPrefetch                   0      0.00%    100.00% # Class of executed instruction
system.cpu.op_class::total                         25                       # Class of executed instruction
system.cpu.workload.numSyscalls                     0                       # Number of system calls
system.membus.snoop_filter.hit_multi_requests            0                       # Number of requests hitting in the snoop filter with multiple (>1) holders of the requested data.
system.membus.snoop_filter.hit_multi_snoops            0                       # Number of snoops hitting in the snoop filter with multiple (>1) holders of the requested data.
system.membus.snoop_filter.hit_single_requests            0                       # Number of requests hitting in the snoop filter with a single holder of the requested data.
system.membus.snoop_filter.hit_single_snoops            0                       # Number of snoops hitting in the snoop filter with a single holder of the requested data.
system.membus.snoop_filter.tot_requests           198                       # Total number of requests made to the snoop filter.
system.membus.snoop_filter.tot_snoops               0                       # Total number of snoops made to the snoop filter.
system.switch_cpus.cc_regfile_reads            201315                       # number of cc regfile reads
system.switch_cpus.cc_regfile_writes           202233                       # number of cc regfile writes
system.switch_cpus.committedInsts             1000000                       # Number of Instructions Simulated
system.switch_cpus.committedOps               1106093                       # Number of Ops (including micro ops) Simulated
system.switch_cpus.cpi                       0.581710                       # CPI: Cycles Per Instruction
system.switch_cpus.cpi_total                 0.581710                       # CPI: Total CPI of All Threads
system.switch_cpus.idleCycles                    3589                       # Total number of cycles that the CPU has spent unscheduled due to idling
system.switch_cpus.iew.branchMispredicts         3009                       # Number of branch mispredicts detected at execute
system.switch_cpus.iew.exec_branches           133054                       # Number of branches executed
system.switch_cpus.iew.exec_nop                  4516                       # number of nop insts executed
system.switch_cpus.iew.exec_rate             2.194827                       # Inst execution rate
system.switch_cpus.iew.exec_refs               583395                       # number of memory reference insts executed
system.switch_cpus.iew.exec_stores             212638                       # Number of stores executed
system.switch_cpus.iew.exec_swp                     0                       # number of swp insts executed
system.switch_cpus.iew.iewBlockCycles           61748                       # Number of cycles IEW is blocking
system.switch_cpus.iew.iewDispLoadInsts        376610                       # Number of dispatched load instructions
system.switch_cpus.iew.iewDispNonSpecInsts            0                       # Number of dispatched non-speculative instructions
system.switch_cpus.iew.iewDispSquashedInsts            0                       # Number of squashed instructions skipped by dispatch
system.switch_cpus.iew.iewDispStoreInsts       240697                       # Number of dispatched store instructions
system.switch_cpus.iew.iewDispatchedInsts      1365010                       # Number of instructions dispatched to IQ
system.switch_cpus.iew.iewExecLoadInsts        370757                       # Number of load instructions executed
system.switch_cpus.iew.iewExecSquashedInsts         6871                       # Number of squashed instructions skipped in execute
system.switch_cpus.iew.iewExecutedInsts       1276753                       # Number of executed instructions
system.switch_cpus.iew.iewIQFullEvents              0                       # Number of times the IQ has become full, causing a stall
system.switch_cpus.iew.iewIdleCycles                0                       # Number of cycles IEW is idle
system.switch_cpus.iew.iewLSQFullEvents             0                       # Number of times the LSQ has become full, causing a stall
system.switch_cpus.iew.iewSquashCycles           3145                       # Number of cycles IEW is squashing
system.switch_cpus.iew.iewUnblockCycles             0                       # Number of cycles IEW is unblocking
system.switch_cpus.iew.memOrderViolationEvents          172                       # Number of memory order violations
system.switch_cpus.iew.predictedNotTakenIncorrect         1174                       # Number of branches that were predicted not taken incorrectly
system.switch_cpus.iew.predictedTakenIncorrect         1835                       # Number of branches that were predicted taken incorrectly
system.switch_cpus.iew.wb_consumers           1392909                       # num instructions consuming a value
system.switch_cpus.iew.wb_count               1253548                       # cumulative count of insts written-back
system.switch_cpus.iew.wb_fanout             0.647032                       # average fanout of values written-back
system.switch_cpus.iew.wb_producers            901257                       # num instructions producing a value
system.switch_cpus.iew.wb_rate               2.154936                       # insts written-back per cycle
system.switch_cpus.iew.wb_sent                1255056                       # cumulative count of insts sent to commit
system.switch_cpus.int_regfile_reads          1601553                       # number of integer regfile reads
system.switch_cpus.int_regfile_writes          973640                       # number of integer regfile writes
system.switch_cpus.ipc                       1.719070                       # IPC: Instructions Per Cycle
system.switch_cpus.ipc_total                 1.719070                       # IPC: Total IPC of All Threads
system.switch_cpus.iq.FU_type_0::No_OpClass           17      0.00%      0.00% # Type of FU issued
system.switch_cpus.iq.FU_type_0::IntAlu        654007     50.95%     50.95% # Type of FU issued
system.switch_cpus.iq.FU_type_0::IntMult        39736      3.10%     54.05% # Type of FU issued
system.switch_cpus.iq.FU_type_0::IntDiv             0      0.00%     54.05% # Type of FU issued
system.switch_cpus.iq.FU_type_0::FloatAdd            0      0.00%     54.05% # Type of FU issued
system.switch_cpus.iq.FU_type_0::FloatCmp            0      0.00%     54.05% # Type of FU issued
system.switch_cpus.iq.FU_type_0::FloatCvt            0      0.00%     54.05% # Type of FU issued
system.switch_cpus.iq.FU_type_0::FloatMult            0      0.00%     54.05% # Type of FU issued
system.switch_cpus.iq.FU_type_0::FloatMultAcc            0      0.00%     54.05% # Type of FU issued
system.switch_cpus.iq.FU_type_0::FloatDiv            0      0.00%     54.05% # Type of FU issued
system.switch_cpus.iq.FU_type_0::FloatMisc            0      0.00%     54.05% # Type of FU issued
system.switch_cpus.iq.FU_type_0::FloatSqrt            0      0.00%     54.05% # Type of FU issued
system.switch_cpus.iq.FU_type_0::SimdAdd            0      0.00%     54.05% # Type of FU issued
system.switch_cpus.iq.FU_type_0::SimdAddAcc            0      0.00%     54.05% # Type of FU issued
system.switch_cpus.iq.FU_type_0::SimdAlu            0      0.00%     54.05% # Type of FU issued
system.switch_cpus.iq.FU_type_0::SimdCmp            0      0.00%     54.05% # Type of FU issued
system.switch_cpus.iq.FU_type_0::SimdCvt            0      0.00%     54.05% # Type of FU issued
system.switch_cpus.iq.FU_type_0::SimdMisc            0      0.00%     54.05% # Type of FU issued
system.switch_cpus.iq.FU_type_0::SimdMult            0      0.00%     54.05% # Type of FU issued
system.switch_cpus.iq.FU_type_0::SimdMultAcc            0      0.00%     54.05% # Type of FU issued
system.switch_cpus.iq.FU_type_0::SimdShift            0      0.00%     54.05% # Type of FU issued
system.switch_cpus.iq.FU_type_0::SimdShiftAcc            0      0.00%     54.05% # Type of FU issued
system.switch_cpus.iq.FU_type_0::SimdDiv            0      0.00%     54.05% # Type of FU issued
system.switch_cpus.iq.FU_type_0::SimdSqrt            0      0.00%     54.05% # Type of FU issued
system.switch_cpus.iq.FU_type_0::SimdFloatAdd            0      0.00%     54.05% # Type of FU issued
system.switch_cpus.iq.FU_type_0::SimdFloatAlu            0      0.00%     54.05% # Type of FU issued
system.switch_cpus.iq.FU_type_0::SimdFloatCmp            0      0.00%     54.05% # Type of FU issued
system.switch_cpus.iq.FU_type_0::SimdFloatCvt            0      0.00%     54.05% # Type of FU issued
system.switch_cpus.iq.FU_type_0::SimdFloatDiv            0      0.00%     54.05% # Type of FU issued
system.switch_cpus.iq.FU_type_0::SimdFloatMisc            0      0.00%     54.05% # Type of FU issued
system.switch_cpus.iq.FU_type_0::SimdFloatMult            0      0.00%     54.05% # Type of FU issued
system.switch_cpus.iq.FU_type_0::SimdFloatMultAcc            0      0.00%     54.05% # Type of FU issued
system.switch_cpus.iq.FU_type_0::SimdFloatSqrt            0      0.00%     54.05% # Type of FU issued
system.switch_cpus.iq.FU_type_0::SimdReduceAdd            0      0.00%     54.05% # Type of FU issued
system.switch_cpus.iq.FU_type_0::SimdReduceAlu            0      0.00%     54.05% # Type of FU issued
system.switch_cpus.iq.FU_type_0::SimdReduceCmp            0      0.00%     54.05% # Type of FU issued
system.switch_cpus.iq.FU_type_0::SimdFloatReduceAdd            0      0.00%     54.05% # Type of FU issued
system.switch_cpus.iq.FU_type_0::SimdFloatReduceCmp            0      0.00%     54.05% # Type of FU issued
system.switch_cpus.iq.FU_type_0::SimdAes            0      0.00%     54.05% # Type of FU issued
system.switch_cpus.iq.FU_type_0::SimdAesMix            0      0.00%     54.05% # Type of FU issued
system.switch_cpus.iq.FU_type_0::SimdSha1Hash            0      0.00%     54.05% # Type of FU issued
system.switch_cpus.iq.FU_type_0::SimdSha1Hash2            0      0.00%     54.05% # Type of FU issued
system.switch_cpus.iq.FU_type_0::SimdSha256Hash            0      0.00%     54.05% # Type of FU issued
system.switch_cpus.iq.FU_type_0::SimdSha256Hash2            0      0.00%     54.05% # Type of FU issued
system.switch_cpus.iq.FU_type_0::SimdShaSigma2            0      0.00%     54.05% # Type of FU issued
system.switch_cpus.iq.FU_type_0::SimdShaSigma3            0      0.00%     54.05% # Type of FU issued
system.switch_cpus.iq.FU_type_0::SimdPredAlu            0      0.00%     54.05% # Type of FU issued
system.switch_cpus.iq.FU_type_0::MemRead       373829     29.12%     83.17% # Type of FU issued
system.switch_cpus.iq.FU_type_0::MemWrite       216039     16.83%    100.00% # Type of FU issued
system.switch_cpus.iq.FU_type_0::FloatMemRead            0      0.00%    100.00% # Type of FU issued
system.switch_cpus.iq.FU_type_0::FloatMemWrite            0      0.00%    100.00% # Type of FU issued
system.switch_cpus.iq.FU_type_0::IprAccess            0      0.00%    100.00% # Type of FU issued
system.switch_cpus.iq.FU_type_0::InstPrefetch            0      0.00%    100.00% # Type of FU issued
system.switch_cpus.iq.FU_type_0::total        1283628                       # Type of FU issued
system.switch_cpus.iq.fp_alu_accesses               0                       # Number of floating point alu accesses
system.switch_cpus.iq.fp_inst_queue_reads            0                       # Number of floating instruction queue reads
system.switch_cpus.iq.fp_inst_queue_wakeup_accesses            0                       # Number of floating instruction queue wakeup accesses
system.switch_cpus.iq.fp_inst_queue_writes            0                       # Number of floating instruction queue writes
system.switch_cpus.iq.fu_busy_cnt              560814                       # FU busy when requested
system.switch_cpus.iq.fu_busy_rate           0.436898                       # FU busy rate (busy events/executed inst)
system.switch_cpus.iq.fu_full::No_OpClass            0      0.00%      0.00% # attempts to use FU when none available
system.switch_cpus.iq.fu_full::IntAlu          186111     33.19%     33.19% # attempts to use FU when none available
system.switch_cpus.iq.fu_full::IntMult             64      0.01%     33.20% # attempts to use FU when none available
system.switch_cpus.iq.fu_full::IntDiv               0      0.00%     33.20% # attempts to use FU when none available
system.switch_cpus.iq.fu_full::FloatAdd             0      0.00%     33.20% # attempts to use FU when none available
system.switch_cpus.iq.fu_full::FloatCmp             0      0.00%     33.20% # attempts to use FU when none available
system.switch_cpus.iq.fu_full::FloatCvt             0      0.00%     33.20% # attempts to use FU when none available
system.switch_cpus.iq.fu_full::FloatMult            0      0.00%     33.20% # attempts to use FU when none available
system.switch_cpus.iq.fu_full::FloatMultAcc            0      0.00%     33.20% # attempts to use FU when none available
system.switch_cpus.iq.fu_full::FloatDiv             0      0.00%     33.20% # attempts to use FU when none available
system.switch_cpus.iq.fu_full::FloatMisc            0      0.00%     33.20% # attempts to use FU when none available
system.switch_cpus.iq.fu_full::FloatSqrt            0      0.00%     33.20% # attempts to use FU when none available
system.switch_cpus.iq.fu_full::SimdAdd              0      0.00%     33.20% # attempts to use FU when none available
system.switch_cpus.iq.fu_full::SimdAddAcc            0      0.00%     33.20% # attempts to use FU when none available
system.switch_cpus.iq.fu_full::SimdAlu              0      0.00%     33.20% # attempts to use FU when none available
system.switch_cpus.iq.fu_full::SimdCmp              0      0.00%     33.20% # attempts to use FU when none available
system.switch_cpus.iq.fu_full::SimdCvt              0      0.00%     33.20% # attempts to use FU when none available
system.switch_cpus.iq.fu_full::SimdMisc             0      0.00%     33.20% # attempts to use FU when none available
system.switch_cpus.iq.fu_full::SimdMult             0      0.00%     33.20% # attempts to use FU when none available
system.switch_cpus.iq.fu_full::SimdMultAcc            0      0.00%     33.20% # attempts to use FU when none available
system.switch_cpus.iq.fu_full::SimdShift            0      0.00%     33.20% # attempts to use FU when none available
system.switch_cpus.iq.fu_full::SimdShiftAcc            0      0.00%     33.20% # attempts to use FU when none available
system.switch_cpus.iq.fu_full::SimdDiv              0      0.00%     33.20% # attempts to use FU when none available
system.switch_cpus.iq.fu_full::SimdSqrt             0      0.00%     33.20% # attempts to use FU when none available
system.switch_cpus.iq.fu_full::SimdFloatAdd            0      0.00%     33.20% # attempts to use FU when none available
system.switch_cpus.iq.fu_full::SimdFloatAlu            0      0.00%     33.20% # attempts to use FU when none available
system.switch_cpus.iq.fu_full::SimdFloatCmp            0      0.00%     33.20% # attempts to use FU when none available
system.switch_cpus.iq.fu_full::SimdFloatCvt            0      0.00%     33.20% # attempts to use FU when none available
system.switch_cpus.iq.fu_full::SimdFloatDiv            0      0.00%     33.20% # attempts to use FU when none available
system.switch_cpus.iq.fu_full::SimdFloatMisc            0      0.00%     33.20% # attempts to use FU when none available
system.switch_cpus.iq.fu_full::SimdFloatMult            0      0.00%     33.20% # attempts to use FU when none available
system.switch_cpus.iq.fu_full::SimdFloatMultAcc            0      0.00%     33.20% # attempts to use FU when none available
system.switch_cpus.iq.fu_full::SimdFloatSqrt            0      0.00%     33.20% # attempts to use FU when none available
system.switch_cpus.iq.fu_full::SimdReduceAdd            0      0.00%     33.20% # attempts to use FU when none available
system.switch_cpus.iq.fu_full::SimdReduceAlu            0      0.00%     33.20% # attempts to use FU when none available
system.switch_cpus.iq.fu_full::SimdReduceCmp            0      0.00%     33.20% # attempts to use FU when none available
system.switch_cpus.iq.fu_full::SimdFloatReduceAdd            0      0.00%     33.20% # attempts to use FU when none available
system.switch_cpus.iq.fu_full::SimdFloatReduceCmp            0      0.00%     33.20% # attempts to use FU when none available
system.switch_cpus.iq.fu_full::SimdAes              0      0.00%     33.20% # attempts to use FU when none available
system.switch_cpus.iq.fu_full::SimdAesMix            0      0.00%     33.20% # attempts to use FU when none available
system.switch_cpus.iq.fu_full::SimdSha1Hash            0      0.00%     33.20% # attempts to use FU when none available
system.switch_cpus.iq.fu_full::SimdSha1Hash2            0      0.00%     33.20% # attempts to use FU when none available
system.switch_cpus.iq.fu_full::SimdSha256Hash            0      0.00%     33.20% # attempts to use FU when none available
system.switch_cpus.iq.fu_full::SimdSha256Hash2            0      0.00%     33.20% # attempts to use FU when none available
system.switch_cpus.iq.fu_full::SimdShaSigma2            0      0.00%     33.20% # attempts to use FU when none available
system.switch_cpus.iq.fu_full::SimdShaSigma3            0      0.00%     33.20% # attempts to use FU when none available
system.switch_cpus.iq.fu_full::SimdPredAlu            0      0.00%     33.20% # attempts to use FU when none available
system.switch_cpus.iq.fu_full::MemRead         289902     51.69%     84.89% # attempts to use FU when none available
system.switch_cpus.iq.fu_full::MemWrite         84737     15.11%    100.00% # attempts to use FU when none available
system.switch_cpus.iq.fu_full::FloatMemRead            0      0.00%    100.00% # attempts to use FU when none available
system.switch_cpus.iq.fu_full::FloatMemWrite            0      0.00%    100.00% # attempts to use FU when none available
system.switch_cpus.iq.fu_full::IprAccess            0      0.00%    100.00% # attempts to use FU when none available
system.switch_cpus.iq.fu_full::InstPrefetch            0      0.00%    100.00% # attempts to use FU when none available
system.switch_cpus.iq.int_alu_accesses        1844425                       # Number of integer alu accesses
system.switch_cpus.iq.int_inst_queue_reads      3716847                       # Number of integer instruction queue reads
system.switch_cpus.iq.int_inst_queue_wakeup_accesses      1253548                       # Number of integer instruction queue wakeup accesses
system.switch_cpus.iq.int_inst_queue_writes      1615006                       # Number of integer instruction queue writes
system.switch_cpus.iq.iqInstsAdded            1360494                       # Number of instructions added to the IQ (excludes non-spec)
system.switch_cpus.iq.iqInstsIssued           1283628                       # Number of instructions issued
system.switch_cpus.iq.iqSquashedInstsExamined       254340                       # Number of squashed instructions iterated over during squash; mainly for profiling
system.switch_cpus.iq.iqSquashedInstsIssued        10660                       # Number of squashed instructions issued
system.switch_cpus.iq.iqSquashedOperandsExamined       166806                       # Number of squashed operands that are examined and possibly removed from graph
system.switch_cpus.iq.issued_per_cycle::samples       578121                       # Number of insts issued each cycle
system.switch_cpus.iq.issued_per_cycle::mean     2.220345                       # Number of insts issued each cycle
system.switch_cpus.iq.issued_per_cycle::stdev     1.368378                       # Number of insts issued each cycle
system.switch_cpus.iq.issued_per_cycle::underflows            0      0.00%      0.00% # Number of insts issued each cycle
system.switch_cpus.iq.issued_per_cycle::0        96762     16.74%     16.74% # Number of insts issued each cycle
system.switch_cpus.iq.issued_per_cycle::1        80640     13.95%     30.69% # Number of insts issued each cycle
system.switch_cpus.iq.issued_per_cycle::2       112453     19.45%     50.14% # Number of insts issued each cycle
system.switch_cpus.iq.issued_per_cycle::3       182366     31.54%     81.68% # Number of insts issued each cycle
system.switch_cpus.iq.issued_per_cycle::4        98516     17.04%     98.72% # Number of insts issued each cycle
system.switch_cpus.iq.issued_per_cycle::5         7384      1.28%    100.00% # Number of insts issued each cycle
system.switch_cpus.iq.issued_per_cycle::6            0      0.00%    100.00% # Number of insts issued each cycle
system.switch_cpus.iq.issued_per_cycle::7            0      0.00%    100.00% # Number of insts issued each cycle
system.switch_cpus.iq.issued_per_cycle::8            0      0.00%    100.00% # Number of insts issued each cycle
system.switch_cpus.iq.issued_per_cycle::overflows            0      0.00%    100.00% # Number of insts issued each cycle
system.switch_cpus.iq.issued_per_cycle::min_value            0                       # Number of insts issued each cycle
system.switch_cpus.iq.issued_per_cycle::max_value            5                       # Number of insts issued each cycle
system.switch_cpus.iq.issued_per_cycle::total       578121                       # Number of insts issued each cycle
system.switch_cpus.iq.rate                   2.206646                       # Inst issue rate
system.switch_cpus.iq.vec_alu_accesses              0                       # Number of vector alu accesses
system.switch_cpus.iq.vec_inst_queue_reads            0                       # Number of vector instruction queue reads
system.switch_cpus.iq.vec_inst_queue_wakeup_accesses            0                       # Number of vector instruction queue wakeup accesses
system.switch_cpus.iq.vec_inst_queue_writes            0                       # Number of vector instruction queue writes
system.switch_cpus.memDep0.conflictingLoads       186908                       # Number of conflicting loads.
system.switch_cpus.memDep0.conflictingStores        32465                       # Number of conflicting stores.
system.switch_cpus.memDep0.insertedLoads       376610                       # Number of loads inserted to the mem dependence unit.
system.switch_cpus.memDep0.insertedStores       240697                       # Number of stores inserted to the mem dependence unit.
system.switch_cpus.misc_regfile_reads         2852859                       # number of misc regfile reads
system.switch_cpus.misc_regfile_writes              1                       # number of misc regfile writes
system.switch_cpus.numCycles                   581710                       # number of cpu cycles simulated
system.switch_cpus.numWorkItemsCompleted            0                       # number of work items this cpu completed
system.switch_cpus.numWorkItemsStarted              0                       # number of work items this cpu started
system.switch_cpus.timesIdled                      34                       # Number of times that the entire CPU went into an idle state and unscheduled itself
system.switch_cpus.vec_regfile_writes              44                       # number of vector regfile writes
system.tol2bus.snoop_filter.hit_multi_requests            0                       # Number of requests hitting in the snoop filter with multiple (>1) holders of the requested data.
system.tol2bus.snoop_filter.hit_multi_snoops            0                       # Number of snoops hitting in the snoop filter with multiple (>1) holders of the requested data.
system.tol2bus.snoop_filter.hit_single_requests            0                       # Number of requests hitting in the snoop filter with a single holder of the requested data.
system.tol2bus.snoop_filter.hit_single_snoops            0                       # Number of snoops hitting in the snoop filter with a single holder of the requested data.
system.tol2bus.snoop_filter.tot_requests          186                       # Total number of requests made to the snoop filter.
system.tol2bus.snoop_filter.tot_snoops              0                       # Total number of snoops made to the snoop filter.
system.clk_domain.clock                          1000                       # Clock period in ticks
system.cpu.dcache.demand_hits::.cpu.data           10                       # number of demand (read+write) hits
system.cpu.dcache.demand_hits::.switch_cpus.data       348559                       # number of demand (read+write) hits
system.cpu.dcache.demand_hits::total           348569                       # number of demand (read+write) hits
system.cpu.dcache.overall_hits::.cpu.data           10                       # number of overall hits
system.cpu.dcache.overall_hits::.switch_cpus.data       348559                       # number of overall hits
system.cpu.dcache.overall_hits::total          348569                       # number of overall hits
system.cpu.dcache.demand_misses::.cpu.data            2                       # number of demand (read+write) misses
system.cpu.dcache.demand_misses::.switch_cpus.data          233                       # number of demand (read+write) misses
system.cpu.dcache.demand_misses::total            235                       # number of demand (read+write) misses
system.cpu.dcache.overall_misses::.cpu.data            2                       # number of overall misses
system.cpu.dcache.overall_misses::.switch_cpus.data          233                       # number of overall misses
system.cpu.dcache.overall_misses::total           235                       # number of overall misses
system.cpu.dcache.demand_miss_latency::.switch_cpus.data      9528400                       # number of demand (read+write) miss cycles
system.cpu.dcache.demand_miss_latency::total      9528400                       # number of demand (read+write) miss cycles
system.cpu.dcache.overall_miss_latency::.switch_cpus.data      9528400                       # number of overall miss cycles
system.cpu.dcache.overall_miss_latency::total      9528400                       # number of overall miss cycles
system.cpu.dcache.demand_accesses::.cpu.data           12                       # number of demand (read+write) accesses
system.cpu.dcache.demand_accesses::.switch_cpus.data       348792                       # number of demand (read+write) accesses
system.cpu.dcache.demand_accesses::total       348804                       # number of demand (read+write) accesses
system.cpu.dcache.overall_accesses::.cpu.data           12                       # number of overall (read+write) accesses
system.cpu.dcache.overall_accesses::.switch_cpus.data       348792                       # number of overall (read+write) accesses
system.cpu.dcache.overall_accesses::total       348804                       # number of overall (read+write) accesses
system.cpu.dcache.demand_miss_rate::.cpu.data     0.166667                       # miss rate for demand accesses
system.cpu.dcache.demand_miss_rate::.switch_cpus.data     0.000668                       # miss rate for demand accesses
system.cpu.dcache.demand_miss_rate::total     0.000674                       # miss rate for demand accesses
system.cpu.dcache.overall_miss_rate::.cpu.data     0.166667                       # miss rate for overall accesses
system.cpu.dcache.overall_miss_rate::.switch_cpus.data     0.000668                       # miss rate for overall accesses
system.cpu.dcache.overall_miss_rate::total     0.000674                       # miss rate for overall accesses
system.cpu.dcache.demand_avg_miss_latency::.switch_cpus.data 40894.420601                       # average overall miss latency
system.cpu.dcache.demand_avg_miss_latency::total 40546.382979                       # average overall miss latency
system.cpu.dcache.overall_avg_miss_latency::.switch_cpus.data 40894.420601                       # average overall miss latency
system.cpu.dcache.overall_avg_miss_latency::total 40546.382979                       # average overall miss latency
system.cpu.dcache.blocked_cycles::no_mshrs            0                       # number of cycles access was blocked
system.cpu.dcache.blocked_cycles::no_targets            0                       # number of cycles access was blocked
system.cpu.dcache.blocked::no_mshrs                 0                       # number of cycles access was blocked
system.cpu.dcache.blocked::no_targets               0                       # number of cycles access was blocked
system.cpu.dcache.avg_blocked_cycles::no_mshrs          nan                       # average number of cycles each access was blocked
system.cpu.dcache.avg_blocked_cycles::no_targets          nan                       # average number of cycles each access was blocked
system.cpu.dcache.demand_mshr_hits::.switch_cpus.data           96                       # number of demand (read+write) MSHR hits
system.cpu.dcache.demand_mshr_hits::total           96                       # number of demand (read+write) MSHR hits
system.cpu.dcache.overall_mshr_hits::.switch_cpus.data           96                       # number of overall MSHR hits
system.cpu.dcache.overall_mshr_hits::total           96                       # number of overall MSHR hits
system.cpu.dcache.demand_mshr_misses::.switch_cpus.data          137                       # number of demand (read+write) MSHR misses
system.cpu.dcache.demand_mshr_misses::total          137                       # number of demand (read+write) MSHR misses
system.cpu.dcache.overall_mshr_misses::.switch_cpus.data          137                       # number of overall MSHR misses
system.cpu.dcache.overall_mshr_misses::total          137                       # number of overall MSHR misses
system.cpu.dcache.demand_mshr_miss_latency::.switch_cpus.data      3860400                       # number of demand (read+write) MSHR miss cycles
system.cpu.dcache.demand_mshr_miss_latency::total      3860400                       # number of demand (read+write) MSHR miss cycles
system.cpu.dcache.overall_mshr_miss_latency::.switch_cpus.data      3860400                       # number of overall MSHR miss cycles
system.cpu.dcache.overall_mshr_miss_latency::total      3860400                       # number of overall MSHR miss cycles
system.cpu.dcache.demand_mshr_miss_rate::.switch_cpus.data     0.000393                       # mshr miss rate for demand accesses
system.cpu.dcache.demand_mshr_miss_rate::total     0.000393                       # mshr miss rate for demand accesses
system.cpu.dcache.overall_mshr_miss_rate::.switch_cpus.data     0.000393                       # mshr miss rate for overall accesses
system.cpu.dcache.overall_mshr_miss_rate::total     0.000393                       # mshr miss rate for overall accesses
system.cpu.dcache.demand_avg_mshr_miss_latency::.switch_cpus.data 28178.102190                       # average overall mshr miss latency
system.cpu.dcache.demand_avg_mshr_miss_latency::total 28178.102190                       # average overall mshr miss latency
system.cpu.dcache.overall_avg_mshr_miss_latency::.switch_cpus.data 28178.102190                       # average overall mshr miss latency
system.cpu.dcache.overall_avg_mshr_miss_latency::total 28178.102190                       # average overall mshr miss latency
system.cpu.dcache.replacements                      0                       # number of replacements
system.cpu.dcache.ReadReq_hits::.cpu.data            3                       # number of ReadReq hits
system.cpu.dcache.ReadReq_hits::.switch_cpus.data       165487                       # number of ReadReq hits
system.cpu.dcache.ReadReq_hits::total          165490                       # number of ReadReq hits
system.cpu.dcache.ReadReq_misses::.switch_cpus.data          184                       # number of ReadReq misses
system.cpu.dcache.ReadReq_misses::total           184                       # number of ReadReq misses
system.cpu.dcache.ReadReq_miss_latency::.switch_cpus.data      8122400                       # number of ReadReq miss cycles
system.cpu.dcache.ReadReq_miss_latency::total      8122400                       # number of ReadReq miss cycles
system.cpu.dcache.ReadReq_accesses::.cpu.data            3                       # number of ReadReq accesses(hits+misses)
system.cpu.dcache.ReadReq_accesses::.switch_cpus.data       165671                       # number of ReadReq accesses(hits+misses)
system.cpu.dcache.ReadReq_accesses::total       165674                       # number of ReadReq accesses(hits+misses)
system.cpu.dcache.ReadReq_miss_rate::.switch_cpus.data     0.001111                       # miss rate for ReadReq accesses
system.cpu.dcache.ReadReq_miss_rate::total     0.001111                       # miss rate for ReadReq accesses
system.cpu.dcache.ReadReq_avg_miss_latency::.switch_cpus.data 44143.478261                       # average ReadReq miss latency
system.cpu.dcache.ReadReq_avg_miss_latency::total 44143.478261                       # average ReadReq miss latency
system.cpu.dcache.ReadReq_mshr_hits::.switch_cpus.data           71                       # number of ReadReq MSHR hits
system.cpu.dcache.ReadReq_mshr_hits::total           71                       # number of ReadReq MSHR hits
system.cpu.dcache.ReadReq_mshr_misses::.switch_cpus.data          113                       # number of ReadReq MSHR misses
system.cpu.dcache.ReadReq_mshr_misses::total          113                       # number of ReadReq MSHR misses
system.cpu.dcache.ReadReq_mshr_miss_latency::.switch_cpus.data      3216800                       # number of ReadReq MSHR miss cycles
system.cpu.dcache.ReadReq_mshr_miss_latency::total      3216800                       # number of ReadReq MSHR miss cycles
system.cpu.dcache.ReadReq_mshr_miss_rate::.switch_cpus.data     0.000682                       # mshr miss rate for ReadReq accesses
system.cpu.dcache.ReadReq_mshr_miss_rate::total     0.000682                       # mshr miss rate for ReadReq accesses
system.cpu.dcache.ReadReq_avg_mshr_miss_latency::.switch_cpus.data 28467.256637                       # average ReadReq mshr miss latency
system.cpu.dcache.ReadReq_avg_mshr_miss_latency::total 28467.256637                       # average ReadReq mshr miss latency
system.cpu.dcache.WriteReq_hits::.cpu.data            7                       # number of WriteReq hits
system.cpu.dcache.WriteReq_hits::.switch_cpus.data       183072                       # number of WriteReq hits
system.cpu.dcache.WriteReq_hits::total         183079                       # number of WriteReq hits
system.cpu.dcache.WriteReq_misses::.cpu.data            2                       # number of WriteReq misses
system.cpu.dcache.WriteReq_misses::.switch_cpus.data           49                       # number of WriteReq misses
system.cpu.dcache.WriteReq_misses::total           51                       # number of WriteReq misses
system.cpu.dcache.WriteReq_miss_latency::.switch_cpus.data      1406000                       # number of WriteReq miss cycles
system.cpu.dcache.WriteReq_miss_latency::total      1406000                       # number of WriteReq miss cycles
system.cpu.dcache.WriteReq_accesses::.cpu.data            9                       # number of WriteReq accesses(hits+misses)
system.cpu.dcache.WriteReq_accesses::.switch_cpus.data       183121                       # number of WriteReq accesses(hits+misses)
system.cpu.dcache.WriteReq_accesses::total       183130                       # number of WriteReq accesses(hits+misses)
system.cpu.dcache.WriteReq_miss_rate::.cpu.data     0.222222                       # miss rate for WriteReq accesses
system.cpu.dcache.WriteReq_miss_rate::.switch_cpus.data     0.000268                       # miss rate for WriteReq accesses
system.cpu.dcache.WriteReq_miss_rate::total     0.000278                       # miss rate for WriteReq accesses
system.cpu.dcache.WriteReq_avg_miss_latency::.switch_cpus.data 28693.877551                       # average WriteReq miss latency
system.cpu.dcache.WriteReq_avg_miss_latency::total 27568.627451                       # average WriteReq miss latency
system.cpu.dcache.WriteReq_mshr_hits::.switch_cpus.data           25                       # number of WriteReq MSHR hits
system.cpu.dcache.WriteReq_mshr_hits::total           25                       # number of WriteReq MSHR hits
system.cpu.dcache.WriteReq_mshr_misses::.switch_cpus.data           24                       # number of WriteReq MSHR misses
system.cpu.dcache.WriteReq_mshr_misses::total           24                       # number of WriteReq MSHR misses
system.cpu.dcache.WriteReq_mshr_miss_latency::.switch_cpus.data       643600                       # number of WriteReq MSHR miss cycles
system.cpu.dcache.WriteReq_mshr_miss_latency::total       643600                       # number of WriteReq MSHR miss cycles
system.cpu.dcache.WriteReq_mshr_miss_rate::.switch_cpus.data     0.000131                       # mshr miss rate for WriteReq accesses
system.cpu.dcache.WriteReq_mshr_miss_rate::total     0.000131                       # mshr miss rate for WriteReq accesses
system.cpu.dcache.WriteReq_avg_mshr_miss_latency::.switch_cpus.data 26816.666667                       # average WriteReq mshr miss latency
system.cpu.dcache.WriteReq_avg_mshr_miss_latency::total 26816.666667                       # average WriteReq mshr miss latency
system.cpu.dcache.power_state.pwrStateResidencyTicks::UNDEFINED 160000084000                       # Cumulative time (in ticks) in various power states
system.cpu.dcache.tags.tagsinuse            73.170098                       # Cycle average of tags in use
system.cpu.dcache.tags.total_refs                   0                       # Total number of references to valid blocks.
system.cpu.dcache.tags.sampled_refs                 0                       # Sample count of references to valid blocks.
system.cpu.dcache.tags.avg_refs                   nan                       # Average number of references to valid blocks.
system.cpu.dcache.tags.warmup_cycle      159767392000                       # Cycle when the warmup percentage was hit.
system.cpu.dcache.tags.occ_blocks::.cpu.data     1.999976                       # Average occupied blocks per requestor
system.cpu.dcache.tags.occ_blocks::.switch_cpus.data    71.170122                       # Average occupied blocks per requestor
system.cpu.dcache.tags.occ_percent::.cpu.data     0.007812                       # Average percentage of cache occupancy
system.cpu.dcache.tags.occ_percent::.switch_cpus.data     0.278008                       # Average percentage of cache occupancy
system.cpu.dcache.tags.occ_percent::total     0.285821                       # Average percentage of cache occupancy
system.cpu.dcache.tags.occ_task_id_blocks::1024          139                       # Occupied blocks per task id
system.cpu.dcache.tags.age_task_id_blocks_1024::0            5                       # Occupied blocks per task id
system.cpu.dcache.tags.age_task_id_blocks_1024::1           51                       # Occupied blocks per task id
system.cpu.dcache.tags.age_task_id_blocks_1024::2           83                       # Occupied blocks per task id
system.cpu.dcache.tags.occ_task_id_percent::1024     0.542969                       # Percentage of cache occupancy per task id
system.cpu.dcache.tags.tag_accesses           2790571                       # Number of tag accesses
system.cpu.dcache.tags.data_accesses          2790571                       # Number of data accesses
system.cpu.dcache.tags.power_state.pwrStateResidencyTicks::UNDEFINED 160000084000                       # Cumulative time (in ticks) in various power states
system.cpu.dtb.instHits                             0                       # ITB inst hits
system.cpu.dtb.instMisses                           0                       # ITB inst misses
system.cpu.dtb.readHits                             0                       # DTB read hits
system.cpu.dtb.readMisses                           0                       # DTB read misses
system.cpu.dtb.writeHits                            0                       # DTB write hits
system.cpu.dtb.writeMisses                          0                       # DTB write misses
system.cpu.dtb.inserts                              0                       # Number of times an entry is inserted into the TLB
system.cpu.dtb.flushTlb                             2                       # Number of times complete TLB was flushed
system.cpu.dtb.flushTlbMva                          0                       # Number of times TLB was flushed by MVA
system.cpu.dtb.flushTlbMvaAsid                      0                       # Number of times TLB was flushed by MVA & ASID
system.cpu.dtb.flushTlbAsid                         0                       # Number of times TLB was flushed by ASID
system.cpu.dtb.flushedEntries                       0                       # Number of entries that have been flushed from TLB
system.cpu.dtb.alignFaults                          0                       # Number of TLB faults due to alignment restrictions
system.cpu.dtb.prefetchFaults                       0                       # Number of TLB faults due to prefetch
system.cpu.dtb.domainFaults                         0                       # Number of TLB faults due to domain restrictions
system.cpu.dtb.permsFaults                          0                       # Number of TLB faults due to permissions restrictions
system.cpu.dtb.readAccesses                         0                       # DTB read accesses
system.cpu.dtb.writeAccesses                        0                       # DTB write accesses
system.cpu.dtb.instAccesses                         0                       # ITB inst accesses
system.cpu.dtb.hits                                 0                       # Total TLB (inst and data) hits
system.cpu.dtb.misses                               0                       # Total TLB (inst and data) misses
system.cpu.dtb.accesses                             0                       # Total TLB (inst and data) accesses
system.cpu.dtb.stage2_mmu.stage2_tlb.instHits            0                       # ITB inst hits
system.cpu.dtb.stage2_mmu.stage2_tlb.instMisses            0                       # ITB inst misses
system.cpu.dtb.stage2_mmu.stage2_tlb.readHits            0                       # DTB read hits
system.cpu.dtb.stage2_mmu.stage2_tlb.readMisses            0                       # DTB read misses
system.cpu.dtb.stage2_mmu.stage2_tlb.writeHits            0                       # DTB write hits
system.cpu.dtb.stage2_mmu.stage2_tlb.writeMisses            0                       # DTB write misses
system.cpu.dtb.stage2_mmu.stage2_tlb.inserts            0                       # Number of times an entry is inserted into the TLB
system.cpu.dtb.stage2_mmu.stage2_tlb.flushTlb            0                       # Number of times complete TLB was flushed
system.cpu.dtb.stage2_mmu.stage2_tlb.flushTlbMva            0                       # Number of times TLB was flushed by MVA
system.cpu.dtb.stage2_mmu.stage2_tlb.flushTlbMvaAsid            0                       # Number of times TLB was flushed by MVA & ASID
system.cpu.dtb.stage2_mmu.stage2_tlb.flushTlbAsid            0                       # Number of times TLB was flushed by ASID
system.cpu.dtb.stage2_mmu.stage2_tlb.flushedEntries            0                       # Number of entries that have been flushed from TLB
system.cpu.dtb.stage2_mmu.stage2_tlb.alignFaults            0                       # Number of TLB faults due to alignment restrictions
system.cpu.dtb.stage2_mmu.stage2_tlb.prefetchFaults            0                       # Number of TLB faults due to prefetch
system.cpu.dtb.stage2_mmu.stage2_tlb.domainFaults            0                       # Number of TLB faults due to domain restrictions
system.cpu.dtb.stage2_mmu.stage2_tlb.permsFaults            0                       # Number of TLB faults due to permissions restrictions
system.cpu.dtb.stage2_mmu.stage2_tlb.readAccesses            0                       # DTB read accesses
system.cpu.dtb.stage2_mmu.stage2_tlb.writeAccesses            0                       # DTB write accesses
system.cpu.dtb.stage2_mmu.stage2_tlb.instAccesses            0                       # ITB inst accesses
system.cpu.dtb.stage2_mmu.stage2_tlb.hits            0                       # Total TLB (inst and data) hits
system.cpu.dtb.stage2_mmu.stage2_tlb.misses            0                       # Total TLB (inst and data) misses
system.cpu.dtb.stage2_mmu.stage2_tlb.accesses            0                       # Total TLB (inst and data) accesses
system.cpu.dtb.stage2_mmu.stage2_tlb.walker.walks            0                       # Table walker walks requested
system.cpu.dtb.stage2_mmu.stage2_tlb.walker.requestOrigin_Requested::Data            0                       # Table walker requests started/completed, data/inst
system.cpu.dtb.stage2_mmu.stage2_tlb.walker.requestOrigin_Requested::Inst            0                       # Table walker requests started/completed, data/inst
system.cpu.dtb.stage2_mmu.stage2_tlb.walker.requestOrigin_Requested::total            0                       # Table walker requests started/completed, data/inst
system.cpu.dtb.stage2_mmu.stage2_tlb.walker.requestOrigin_Completed::Data            0                       # Table walker requests started/completed, data/inst
system.cpu.dtb.stage2_mmu.stage2_tlb.walker.requestOrigin_Completed::Inst            0                       # Table walker requests started/completed, data/inst
system.cpu.dtb.stage2_mmu.stage2_tlb.walker.requestOrigin_Completed::total            0                       # Table walker requests started/completed, data/inst
system.cpu.dtb.stage2_mmu.stage2_tlb.walker.requestOrigin::total            0                       # Table walker requests started/completed, data/inst
system.cpu.dtb.stage2_mmu.stage2_tlb.walker.power_state.pwrStateResidencyTicks::UNDEFINED 160000084000                       # Cumulative time (in ticks) in various power states
system.cpu.dtb.walker.walks                         0                       # Table walker walks requested
system.cpu.dtb.walker.requestOrigin_Requested::Data            0                       # Table walker requests started/completed, data/inst
system.cpu.dtb.walker.requestOrigin_Requested::Inst            0                       # Table walker requests started/completed, data/inst
system.cpu.dtb.walker.requestOrigin_Requested::total            0                       # Table walker requests started/completed, data/inst
system.cpu.dtb.walker.requestOrigin_Completed::Data            0                       # Table walker requests started/completed, data/inst
system.cpu.dtb.walker.requestOrigin_Completed::Inst            0                       # Table walker requests started/completed, data/inst
system.cpu.dtb.walker.requestOrigin_Completed::total            0                       # Table walker requests started/completed, data/inst
system.cpu.dtb.walker.requestOrigin::total            0                       # Table walker requests started/completed, data/inst
system.cpu.dtb.walker.power_state.pwrStateResidencyTicks::UNDEFINED 160000084000                       # Cumulative time (in ticks) in various power states
system.cpu.dtb_walker_cache.blocked_cycles::no_mshrs            0                       # number of cycles access was blocked
system.cpu.dtb_walker_cache.blocked_cycles::no_targets            0                       # number of cycles access was blocked
system.cpu.dtb_walker_cache.blocked::no_mshrs            0                       # number of cycles access was blocked
system.cpu.dtb_walker_cache.blocked::no_targets            0                       # number of cycles access was blocked
system.cpu.dtb_walker_cache.avg_blocked_cycles::no_mshrs          nan                       # average number of cycles each access was blocked
system.cpu.dtb_walker_cache.avg_blocked_cycles::no_targets          nan                       # average number of cycles each access was blocked
system.cpu.dtb_walker_cache.replacements            0                       # number of replacements
system.cpu.dtb_walker_cache.power_state.pwrStateResidencyTicks::UNDEFINED 160000084000                       # Cumulative time (in ticks) in various power states
system.cpu.dtb_walker_cache.tags.tagsinuse            0                       # Cycle average of tags in use
system.cpu.dtb_walker_cache.tags.total_refs            0                       # Total number of references to valid blocks.
system.cpu.dtb_walker_cache.tags.sampled_refs            0                       # Sample count of references to valid blocks.
system.cpu.dtb_walker_cache.tags.avg_refs          nan                       # Average number of references to valid blocks.
system.cpu.dtb_walker_cache.tags.warmup_cycle            0                       # Cycle when the warmup percentage was hit.
system.cpu.dtb_walker_cache.tags.tag_accesses            0                       # Number of tag accesses
system.cpu.dtb_walker_cache.tags.data_accesses            0                       # Number of data accesses
system.cpu.dtb_walker_cache.tags.power_state.pwrStateResidencyTicks::UNDEFINED 160000084000                       # Cumulative time (in ticks) in various power states
system.cpu.icache.demand_hits::.cpu.inst           15                       # number of demand (read+write) hits
system.cpu.icache.demand_hits::.switch_cpus.inst       196113                       # number of demand (read+write) hits
system.cpu.icache.demand_hits::total           196128                       # number of demand (read+write) hits
system.cpu.icache.overall_hits::.cpu.inst           15                       # number of overall hits
system.cpu.icache.overall_hits::.switch_cpus.inst       196113                       # number of overall hits
system.cpu.icache.overall_hits::total          196128                       # number of overall hits
system.cpu.icache.demand_misses::.cpu.inst            4                       # number of demand (read+write) misses
system.cpu.icache.demand_misses::.switch_cpus.inst           82                       # number of demand (read+write) misses
system.cpu.icache.demand_misses::total             86                       # number of demand (read+write) misses
system.cpu.icache.overall_misses::.cpu.inst            4                       # number of overall misses
system.cpu.icache.overall_misses::.switch_cpus.inst           82                       # number of overall misses
system.cpu.icache.overall_misses::total            86                       # number of overall misses
system.cpu.icache.demand_miss_latency::.switch_cpus.inst      4616000                       # number of demand (read+write) miss cycles
system.cpu.icache.demand_miss_latency::total      4616000                       # number of demand (read+write) miss cycles
system.cpu.icache.overall_miss_latency::.switch_cpus.inst      4616000                       # number of overall miss cycles
system.cpu.icache.overall_miss_latency::total      4616000                       # number of overall miss cycles
system.cpu.icache.demand_accesses::.cpu.inst           19                       # number of demand (read+write) accesses
system.cpu.icache.demand_accesses::.switch_cpus.inst       196195                       # number of demand (read+write) accesses
system.cpu.icache.demand_accesses::total       196214                       # number of demand (read+write) accesses
system.cpu.icache.overall_accesses::.cpu.inst           19                       # number of overall (read+write) accesses
system.cpu.icache.overall_accesses::.switch_cpus.inst       196195                       # number of overall (read+write) accesses
system.cpu.icache.overall_accesses::total       196214                       # number of overall (read+write) accesses
system.cpu.icache.demand_miss_rate::.cpu.inst     0.210526                       # miss rate for demand accesses
system.cpu.icache.demand_miss_rate::.switch_cpus.inst     0.000418                       # miss rate for demand accesses
system.cpu.icache.demand_miss_rate::total     0.000438                       # miss rate for demand accesses
system.cpu.icache.overall_miss_rate::.cpu.inst     0.210526                       # miss rate for overall accesses
system.cpu.icache.overall_miss_rate::.switch_cpus.inst     0.000418                       # miss rate for overall accesses
system.cpu.icache.overall_miss_rate::total     0.000438                       # miss rate for overall accesses
system.cpu.icache.demand_avg_miss_latency::.switch_cpus.inst 56292.682927                       # average overall miss latency
system.cpu.icache.demand_avg_miss_latency::total 53674.418605                       # average overall miss latency
system.cpu.icache.overall_avg_miss_latency::.switch_cpus.inst 56292.682927                       # average overall miss latency
system.cpu.icache.overall_avg_miss_latency::total 53674.418605                       # average overall miss latency
system.cpu.icache.blocked_cycles::no_mshrs         1198                       # number of cycles access was blocked
system.cpu.icache.blocked_cycles::no_targets            0                       # number of cycles access was blocked
system.cpu.icache.blocked::no_mshrs                11                       # number of cycles access was blocked
system.cpu.icache.blocked::no_targets               0                       # number of cycles access was blocked
system.cpu.icache.avg_blocked_cycles::no_mshrs   108.909091                       # average number of cycles each access was blocked
system.cpu.icache.avg_blocked_cycles::no_targets          nan                       # average number of cycles each access was blocked
system.cpu.icache.demand_mshr_hits::.switch_cpus.inst           39                       # number of demand (read+write) MSHR hits
system.cpu.icache.demand_mshr_hits::total           39                       # number of demand (read+write) MSHR hits
system.cpu.icache.overall_mshr_hits::.switch_cpus.inst           39                       # number of overall MSHR hits
system.cpu.icache.overall_mshr_hits::total           39                       # number of overall MSHR hits
system.cpu.icache.demand_mshr_misses::.switch_cpus.inst           43                       # number of demand (read+write) MSHR misses
system.cpu.icache.demand_mshr_misses::total           43                       # number of demand (read+write) MSHR misses
system.cpu.icache.overall_mshr_misses::.switch_cpus.inst           43                       # number of overall MSHR misses
system.cpu.icache.overall_mshr_misses::total           43                       # number of overall MSHR misses
system.cpu.icache.demand_mshr_miss_latency::.switch_cpus.inst      2926400                       # number of demand (read+write) MSHR miss cycles
system.cpu.icache.demand_mshr_miss_latency::total      2926400                       # number of demand (read+write) MSHR miss cycles
system.cpu.icache.overall_mshr_miss_latency::.switch_cpus.inst      2926400                       # number of overall MSHR miss cycles
system.cpu.icache.overall_mshr_miss_latency::total      2926400                       # number of overall MSHR miss cycles
system.cpu.icache.demand_mshr_miss_rate::.switch_cpus.inst     0.000219                       # mshr miss rate for demand accesses
system.cpu.icache.demand_mshr_miss_rate::total     0.000219                       # mshr miss rate for demand accesses
system.cpu.icache.overall_mshr_miss_rate::.switch_cpus.inst     0.000219                       # mshr miss rate for overall accesses
system.cpu.icache.overall_mshr_miss_rate::total     0.000219                       # mshr miss rate for overall accesses
system.cpu.icache.demand_avg_mshr_miss_latency::.switch_cpus.inst 68055.813953                       # average overall mshr miss latency
system.cpu.icache.demand_avg_mshr_miss_latency::total 68055.813953                       # average overall mshr miss latency
system.cpu.icache.overall_avg_mshr_miss_latency::.switch_cpus.inst 68055.813953                       # average overall mshr miss latency
system.cpu.icache.overall_avg_mshr_miss_latency::total 68055.813953                       # average overall mshr miss latency
system.cpu.icache.replacements                      0                       # number of replacements
system.cpu.icache.ReadReq_hits::.cpu.inst           15                       # number of ReadReq hits
system.cpu.icache.ReadReq_hits::.switch_cpus.inst       196113                       # number of ReadReq hits
system.cpu.icache.ReadReq_hits::total          196128                       # number of ReadReq hits
system.cpu.icache.ReadReq_misses::.cpu.inst            4                       # number of ReadReq misses
system.cpu.icache.ReadReq_misses::.switch_cpus.inst           82                       # number of ReadReq misses
system.cpu.icache.ReadReq_misses::total            86                       # number of ReadReq misses
system.cpu.icache.ReadReq_miss_latency::.switch_cpus.inst      4616000                       # number of ReadReq miss cycles
system.cpu.icache.ReadReq_miss_latency::total      4616000                       # number of ReadReq miss cycles
system.cpu.icache.ReadReq_accesses::.cpu.inst           19                       # number of ReadReq accesses(hits+misses)
system.cpu.icache.ReadReq_accesses::.switch_cpus.inst       196195                       # number of ReadReq accesses(hits+misses)
system.cpu.icache.ReadReq_accesses::total       196214                       # number of ReadReq accesses(hits+misses)
system.cpu.icache.ReadReq_miss_rate::.cpu.inst     0.210526                       # miss rate for ReadReq accesses
system.cpu.icache.ReadReq_miss_rate::.switch_cpus.inst     0.000418                       # miss rate for ReadReq accesses
system.cpu.icache.ReadReq_miss_rate::total     0.000438                       # miss rate for ReadReq accesses
system.cpu.icache.ReadReq_avg_miss_latency::.switch_cpus.inst 56292.682927                       # average ReadReq miss latency
system.cpu.icache.ReadReq_avg_miss_latency::total 53674.418605                       # average ReadReq miss latency
system.cpu.icache.ReadReq_mshr_hits::.switch_cpus.inst           39                       # number of ReadReq MSHR hits
system.cpu.icache.ReadReq_mshr_hits::total           39                       # number of ReadReq MSHR hits
system.cpu.icache.ReadReq_mshr_misses::.switch_cpus.inst           43                       # number of ReadReq MSHR misses
system.cpu.icache.ReadReq_mshr_misses::total           43                       # number of ReadReq MSHR misses
system.cpu.icache.ReadReq_mshr_miss_latency::.switch_cpus.inst      2926400                       # number of ReadReq MSHR miss cycles
system.cpu.icache.ReadReq_mshr_miss_latency::total      2926400                       # number of ReadReq MSHR miss cycles
system.cpu.icache.ReadReq_mshr_miss_rate::.switch_cpus.inst     0.000219                       # mshr miss rate for ReadReq accesses
system.cpu.icache.ReadReq_mshr_miss_rate::total     0.000219                       # mshr miss rate for ReadReq accesses
system.cpu.icache.ReadReq_avg_mshr_miss_latency::.switch_cpus.inst 68055.813953                       # average ReadReq mshr miss latency
system.cpu.icache.ReadReq_avg_mshr_miss_latency::total 68055.813953                       # average ReadReq mshr miss latency
system.cpu.icache.power_state.pwrStateResidencyTicks::UNDEFINED 160000084000                       # Cumulative time (in ticks) in various power states
system.cpu.icache.tags.tagsinuse            46.675165                       # Cycle average of tags in use
system.cpu.icache.tags.total_refs                   0                       # Total number of references to valid blocks.
system.cpu.icache.tags.sampled_refs                 0                       # Sample count of references to valid blocks.
system.cpu.icache.tags.avg_refs                   nan                       # Average number of references to valid blocks.
system.cpu.icache.tags.warmup_cycle      159767390400                       # Cycle when the warmup percentage was hit.
system.cpu.icache.tags.occ_blocks::.cpu.inst     3.999947                       # Average occupied blocks per requestor
system.cpu.icache.tags.occ_blocks::.switch_cpus.inst    42.675218                       # Average occupied blocks per requestor
system.cpu.icache.tags.occ_percent::.cpu.inst     0.007812                       # Average percentage of cache occupancy
system.cpu.icache.tags.occ_percent::.switch_cpus.inst     0.083350                       # Average percentage of cache occupancy
system.cpu.icache.tags.occ_percent::total     0.091162                       # Average percentage of cache occupancy
system.cpu.icache.tags.occ_task_id_blocks::1024           47                       # Occupied blocks per task id
system.cpu.icache.tags.age_task_id_blocks_1024::2           47                       # Occupied blocks per task id
system.cpu.icache.tags.occ_task_id_percent::1024     0.091797                       # Percentage of cache occupancy per task id
system.cpu.icache.tags.tag_accesses           1569759                       # Number of tag accesses
system.cpu.icache.tags.data_accesses          1569759                       # Number of data accesses
system.cpu.icache.tags.power_state.pwrStateResidencyTicks::UNDEFINED 160000084000                       # Cumulative time (in ticks) in various power states
system.cpu.itb.instHits                             0                       # ITB inst hits
system.cpu.itb.instMisses                           0                       # ITB inst misses
system.cpu.itb.readHits                             0                       # DTB read hits
system.cpu.itb.readMisses                           0                       # DTB read misses
system.cpu.itb.writeHits                            0                       # DTB write hits
system.cpu.itb.writeMisses                          0                       # DTB write misses
system.cpu.itb.inserts                              0                       # Number of times an entry is inserted into the TLB
system.cpu.itb.flushTlb                             2                       # Number of times complete TLB was flushed
system.cpu.itb.flushTlbMva                          0                       # Number of times TLB was flushed by MVA
system.cpu.itb.flushTlbMvaAsid                      0                       # Number of times TLB was flushed by MVA & ASID
system.cpu.itb.flushTlbAsid                         0                       # Number of times TLB was flushed by ASID
system.cpu.itb.flushedEntries                       0                       # Number of entries that have been flushed from TLB
system.cpu.itb.alignFaults                          0                       # Number of TLB faults due to alignment restrictions
system.cpu.itb.prefetchFaults                       0                       # Number of TLB faults due to prefetch
system.cpu.itb.domainFaults                         0                       # Number of TLB faults due to domain restrictions
system.cpu.itb.permsFaults                          0                       # Number of TLB faults due to permissions restrictions
system.cpu.itb.readAccesses                         0                       # DTB read accesses
system.cpu.itb.writeAccesses                        0                       # DTB write accesses
system.cpu.itb.instAccesses                         0                       # ITB inst accesses
system.cpu.itb.hits                                 0                       # Total TLB (inst and data) hits
system.cpu.itb.misses                               0                       # Total TLB (inst and data) misses
system.cpu.itb.accesses                             0                       # Total TLB (inst and data) accesses
system.cpu.itb.stage2_mmu.stage2_tlb.instHits            0                       # ITB inst hits
system.cpu.itb.stage2_mmu.stage2_tlb.instMisses            0                       # ITB inst misses
system.cpu.itb.stage2_mmu.stage2_tlb.readHits            0                       # DTB read hits
system.cpu.itb.stage2_mmu.stage2_tlb.readMisses            0                       # DTB read misses
system.cpu.itb.stage2_mmu.stage2_tlb.writeHits            0                       # DTB write hits
system.cpu.itb.stage2_mmu.stage2_tlb.writeMisses            0                       # DTB write misses
system.cpu.itb.stage2_mmu.stage2_tlb.inserts            0                       # Number of times an entry is inserted into the TLB
system.cpu.itb.stage2_mmu.stage2_tlb.flushTlb            0                       # Number of times complete TLB was flushed
system.cpu.itb.stage2_mmu.stage2_tlb.flushTlbMva            0                       # Number of times TLB was flushed by MVA
system.cpu.itb.stage2_mmu.stage2_tlb.flushTlbMvaAsid            0                       # Number of times TLB was flushed by MVA & ASID
system.cpu.itb.stage2_mmu.stage2_tlb.flushTlbAsid            0                       # Number of times TLB was flushed by ASID
system.cpu.itb.stage2_mmu.stage2_tlb.flushedEntries            0                       # Number of entries that have been flushed from TLB
system.cpu.itb.stage2_mmu.stage2_tlb.alignFaults            0                       # Number of TLB faults due to alignment restrictions
system.cpu.itb.stage2_mmu.stage2_tlb.prefetchFaults            0                       # Number of TLB faults due to prefetch
system.cpu.itb.stage2_mmu.stage2_tlb.domainFaults            0                       # Number of TLB faults due to domain restrictions
system.cpu.itb.stage2_mmu.stage2_tlb.permsFaults            0                       # Number of TLB faults due to permissions restrictions
system.cpu.itb.stage2_mmu.stage2_tlb.readAccesses            0                       # DTB read accesses
system.cpu.itb.stage2_mmu.stage2_tlb.writeAccesses            0                       # DTB write accesses
system.cpu.itb.stage2_mmu.stage2_tlb.instAccesses            0                       # ITB inst accesses
system.cpu.itb.stage2_mmu.stage2_tlb.hits            0                       # Total TLB (inst and data) hits
system.cpu.itb.stage2_mmu.stage2_tlb.misses            0                       # Total TLB (inst and data) misses
system.cpu.itb.stage2_mmu.stage2_tlb.accesses            0                       # Total TLB (inst and data) accesses
system.cpu.itb.stage2_mmu.stage2_tlb.walker.walks            0                       # Table walker walks requested
system.cpu.itb.stage2_mmu.stage2_tlb.walker.requestOrigin_Requested::Data            0                       # Table walker requests started/completed, data/inst
system.cpu.itb.stage2_mmu.stage2_tlb.walker.requestOrigin_Requested::Inst            0                       # Table walker requests started/completed, data/inst
system.cpu.itb.stage2_mmu.stage2_tlb.walker.requestOrigin_Requested::total            0                       # Table walker requests started/completed, data/inst
system.cpu.itb.stage2_mmu.stage2_tlb.walker.requestOrigin_Completed::Data            0                       # Table walker requests started/completed, data/inst
system.cpu.itb.stage2_mmu.stage2_tlb.walker.requestOrigin_Completed::Inst            0                       # Table walker requests started/completed, data/inst
system.cpu.itb.stage2_mmu.stage2_tlb.walker.requestOrigin_Completed::total            0                       # Table walker requests started/completed, data/inst
system.cpu.itb.stage2_mmu.stage2_tlb.walker.requestOrigin::total            0                       # Table walker requests started/completed, data/inst
system.cpu.itb.stage2_mmu.stage2_tlb.walker.power_state.pwrStateResidencyTicks::UNDEFINED 160000084000                       # Cumulative time (in ticks) in various power states
system.cpu.itb.walker.walks                         0                       # Table walker walks requested
system.cpu.itb.walker.requestOrigin_Requested::Data            0                       # Table walker requests started/completed, data/inst
system.cpu.itb.walker.requestOrigin_Requested::Inst            0                       # Table walker requests started/completed, data/inst
system.cpu.itb.walker.requestOrigin_Requested::total            0                       # Table walker requests started/completed, data/inst
system.cpu.itb.walker.requestOrigin_Completed::Data            0                       # Table walker requests started/completed, data/inst
system.cpu.itb.walker.requestOrigin_Completed::Inst            0                       # Table walker requests started/completed, data/inst
system.cpu.itb.walker.requestOrigin_Completed::total            0                       # Table walker requests started/completed, data/inst
system.cpu.itb.walker.requestOrigin::total            0                       # Table walker requests started/completed, data/inst
system.cpu.itb.walker.power_state.pwrStateResidencyTicks::UNDEFINED 160000084000                       # Cumulative time (in ticks) in various power states
system.cpu.itb_walker_cache.blocked_cycles::no_mshrs            0                       # number of cycles access was blocked
system.cpu.itb_walker_cache.blocked_cycles::no_targets            0                       # number of cycles access was blocked
[...]
system.switch_cpus.dtb.walker.requestOrigin_Requested::Data            0                       # Table walker requests started/completed, data/inst
system.switch_cpus.dtb.walker.requestOrigin_Requested::Inst            0                       # Table walker requests started/completed, data/inst
system.switch_cpus.dtb.walker.requestOrigin_Requested::total            0                       # Table walker requests started/completed, data/inst
system.switch_cpus.dtb.walker.requestOrigin_Completed::Data            0                       # Table walker requests started/completed, data/inst
system.switch_cpus.dtb.walker.requestOrigin_Completed::Inst            0                       # Table walker requests started/completed, data/inst
system.switch_cpus.dtb.walker.requestOrigin_Completed::total            0                       # Table walker requests started/completed, data/inst
system.switch_cpus.dtb.walker.requestOrigin::total            0                       # Table walker requests started/completed, data/inst
system.switch_cpus.dtb.walker.power_state.pwrStateResidencyTicks::UNDEFINED   2255875600                       # Cumulative time (in ticks) in various power states
system.switch_cpus.fetch.icacheStallCycles        28065                       # Number of cycles fetch is stalled on an Icache miss
system.switch_cpus.fetch.insts               13196041                       # Number of instructions fetch has processed
system.switch_cpus.fetch.branches             1563678                       # Number of branches that fetch encountered
system.switch_cpus.fetch.predictedBranches      1515571                       # Number of branches that fetch has predicted taken
system.switch_cpus.fetch.cycles               5583335                       # Number of cycles fetch has run and was not squashing or blocked
system.switch_cpus.fetch.squashCycles           56578                       # Number of cycles fetch has spent squashing
system.switch_cpus.fetch.cacheLines           1936557                       # Number of cache lines fetched
system.switch_cpus.fetch.nisnDist::samples      5639689                       # Number of instructions fetched each cycle (Total)
system.switch_cpus.fetch.nisnDist::mean      2.625768                       # Number of instructions fetched each cycle (Total)
system.switch_cpus.fetch.nisnDist::stdev     3.017548                       # Number of instructions fetched each cycle (Total)
system.switch_cpus.fetch.nisnDist::underflows            0      0.00%      0.00% # Number of instructions fetched each cycle (Total)
system.switch_cpus.fetch.nisnDist::0          2537835     45.00%     45.00% # Number of instructions fetched each cycle (Total)
system.switch_cpus.fetch.nisnDist::1           301086      5.34%     50.34% # Number of instructions fetched each cycle (Total)
system.switch_cpus.fetch.nisnDist::2           470287      8.34%     58.68% # Number of instructions fetched each cycle (Total)
system.switch_cpus.fetch.nisnDist::3           332970      5.90%     64.58% # Number of instructions fetched each cycle (Total)
system.switch_cpus.fetch.nisnDist::4           577985     10.25%     74.83% # Number of instructions fetched each cycle (Total)
system.switch_cpus.fetch.nisnDist::5           150319      2.67%     77.50% # Number of instructions fetched each cycle (Total)
system.switch_cpus.fetch.nisnDist::6           280599      4.98%     82.47% # Number of instructions fetched each cycle (Total)
system.switch_cpus.fetch.nisnDist::7            88050      1.56%     84.03% # Number of instructions fetched each cycle (Total)
system.switch_cpus.fetch.nisnDist::8           900558     15.97%    100.00% # Number of instructions fetched each cycle (Total)
system.switch_cpus.fetch.nisnDist::overflows            0      0.00%    100.00% # Number of instructions fetched each cycle (Total)
system.switch_cpus.fetch.nisnDist::min_value            0                       # Number of instructions fetched each cycle (Total)
system.switch_cpus.fetch.nisnDist::max_value            8                       # Number of instructions fetched each cycle (Total)
system.switch_cpus.fetch.nisnDist::total      5639689                       # Number of instructions fetched each cycle (Total)
system.switch_cpus.fetch.branchRate          0.277263                       # Number of branch fetches per cycle
system.switch_cpus.fetch.rate                2.339853                       # Number of inst fetches per cycle
system.switch_cpus.itb.instHits                     0                       # ITB inst hits
system.switch_cpus.itb.instMisses                   0                       # ITB inst misses
system.switch_cpus.itb.readHits                     0                       # DTB read hits
system.switch_cpus.itb.readMisses                   0                       # DTB read misses
system.switch_cpus.itb.writeHits                    0                       # DTB write hits
system.switch_cpus.itb.writeMisses                  0                       # DTB write misses
system.switch_cpus.itb.inserts                      0                       # Number of times an entry is inserted into the TLB
system.switch_cpus.itb.flushTlb                     0                       # Number of times complete TLB was flushed
system.switch_cpus.itb.flushTlbMva                  0                       # Number of times TLB was flushed by MVA
system.switch_cpus.itb.flushTlbMvaAsid              0                       # Number of times TLB was flushed by MVA & ASID
system.switch_cpus.itb.flushTlbAsid                 0                       # Number of times TLB was flushed by ASID
system.switch_cpus.itb.flushedEntries               0                       # Number of entries that have been flushed from TLB
system.switch_cpus.itb.alignFaults                  0                       # Number of TLB faults due to alignment restrictions
system.switch_cpus.itb.prefetchFaults               0                       # Number of TLB faults due to prefetch
system.switch_cpus.itb.domainFaults                 0                       # Number of TLB faults due to domain restrictions
system.switch_cpus.itb.permsFaults                  0                       # Number of TLB faults due to permissions restrictions
system.switch_cpus.itb.readAccesses                 0                       # DTB read accesses
system.switch_cpus.itb.writeAccesses                0                       # DTB write accesses
system.switch_cpus.itb.instAccesses                 0                       # ITB inst accesses
system.switch_cpus.itb.hits                         0                       # Total TLB (inst and data) hits
system.switch_cpus.itb.misses                       0                       # Total TLB (inst and data) misses
system.switch_cpus.itb.accesses                     0                       # Total TLB (inst and data) accesses
system.switch_cpus.itb.stage2_mmu.stage2_tlb.instHits            0                       # ITB inst hits
system.switch_cpus.itb.stage2_mmu.stage2_tlb.instMisses            0                       # ITB inst misses
system.switch_cpus.itb.stage2_mmu.stage2_tlb.readHits            0                       # DTB read hits
system.switch_cpus.itb.stage2_mmu.stage2_tlb.readMisses            0                       # DTB read misses
system.switch_cpus.itb.stage2_mmu.stage2_tlb.writeHits            0                       # DTB write hits
system.switch_cpus.itb.stage2_mmu.stage2_tlb.writeMisses            0                       # DTB write misses
system.switch_cpus.itb.stage2_mmu.stage2_tlb.inserts            0                       # Number of times an entry is inserted into the TLB
system.switch_cpus.itb.stage2_mmu.stage2_tlb.flushTlb            0                       # Number of times complete TLB was flushed
system.switch_cpus.itb.stage2_mmu.stage2_tlb.flushTlbMva            0                       # Number of times TLB was flushed by MVA
system.switch_cpus.itb.stage2_mmu.stage2_tlb.flushTlbMvaAsid            0                       # Number of times TLB was flushed by MVA & ASID
system.switch_cpus.itb.stage2_mmu.stage2_tlb.flushTlbAsid            0                       # Number of times TLB was flushed by ASID
system.switch_cpus.itb.stage2_mmu.stage2_tlb.flushedEntries            0                       # Number of entries that have been flushed from TLB
system.switch_cpus.itb.stage2_mmu.stage2_tlb.alignFaults            0                       # Number of TLB faults due to alignment restrictions
system.switch_cpus.itb.stage2_mmu.stage2_tlb.prefetchFaults            0                       # Number of TLB faults due to prefetch
system.switch_cpus.itb.stage2_mmu.stage2_tlb.domainFaults            0                       # Number of TLB faults due to domain restrictions
system.switch_cpus.itb.stage2_mmu.stage2_tlb.permsFaults            0                       # Number of TLB faults due to permissions restrictions
system.switch_cpus.itb.stage2_mmu.stage2_tlb.readAccesses            0                       # DTB read accesses
system.switch_cpus.itb.stage2_mmu.stage2_tlb.writeAccesses            0                       # DTB write accesses
system.switch_cpus.itb.stage2_mmu.stage2_tlb.instAccesses            0                       # ITB inst accesses
system.switch_cpus.itb.stage2_mmu.stage2_tlb.hits            0                       # Total TLB (inst and data) hits
system.switch_cpus.itb.stage2_mmu.stage2_tlb.misses            0                       # Total TLB (inst and data) misses
system.switch_cpus.itb.stage2_mmu.stage2_tlb.accesses            0                       # Total TLB (inst and data) accesses
system.switch_cpus.itb.stage2_mmu.stage2_tlb.walker.walks            0                       # Table walker walks requested
system.switch_cpus.itb.stage2_mmu.stage2_tlb.walker.requestOrigin_Requested::Data            0                       # Table walker requests started/completed, data/inst
system.switch_cpus.itb.stage2_mmu.stage2_tlb.walker.requestOrigin_Requested::Inst            0                       # Table walker requests started/completed, data/inst
system.switch_cpus.itb.stage2_mmu.stage2_tlb.walker.requestOrigin_Requested::total            0                       # Table walker requests started/completed, data/inst
system.switch_cpus.itb.stage2_mmu.stage2_tlb.walker.requestOrigin_Completed::Data            0                       # Table walker requests started/completed, data/inst
system.switch_cpus.itb.stage2_mmu.stage2_tlb.walker.requestOrigin_Completed::Inst            0                       # Table walker requests started/completed, data/inst
system.switch_cpus.itb.stage2_mmu.stage2_tlb.walker.requestOrigin_Completed::total            0                       # Table walker requests started/completed, data/inst
system.switch_cpus.itb.stage2_mmu.stage2_tlb.walker.requestOrigin::total            0                       # Table walker requests started/completed, data/inst
system.switch_cpus.itb.stage2_mmu.stage2_tlb.walker.power_state.pwrStateResidencyTicks::UNDEFINED   2255875600                       # Cumulative time (in ticks) in various power states
system.switch_cpus.itb.walker.walks                 0                       # Table walker walks requested
system.switch_cpus.itb.walker.requestOrigin_Requested::Data            0                       # Table walker requests started/completed, data/inst
system.switch_cpus.itb.walker.requestOrigin_Requested::Inst            0                       # Table walker requests started/completed, data/inst
system.switch_cpus.itb.walker.requestOrigin_Requested::total            0                       # Table walker requests started/completed, data/inst
system.switch_cpus.itb.walker.requestOrigin_Completed::Data            0                       # Table walker requests started/completed, data/inst
system.switch_cpus.itb.walker.requestOrigin_Completed::Inst            0                       # Table walker requests started/completed, data/inst
system.switch_cpus.itb.walker.requestOrigin_Completed::total            0                       # Table walker requests started/completed, data/inst
system.switch_cpus.itb.walker.requestOrigin::total            0                       # Table walker requests started/completed, data/inst
system.switch_cpus.itb.walker.power_state.pwrStateResidencyTicks::UNDEFINED   2255875600                       # Cumulative time (in ticks) in various power states
system.switch_cpus.lsq0.forwLoads             1848944                       # Number of loads that had data forwarded from stores
system.switch_cpus.lsq0.squashedLoads          628190                       # Number of loads squashed
system.switch_cpus.lsq0.ignoredResponses           25                       # Number of memory responses ignored because the instruction is squashed
system.switch_cpus.lsq0.memOrderViolation         1425                       # Number of memory ordering violations
system.switch_cpus.lsq0.squashedStores         543196                       # Number of stores squashed
system.switch_cpus.lsq0.rescheduledLoads       209171                       # Number of loads that were rescheduled
system.switch_cpus.lsq0.blockedByCache              0                       # Number of times an access to memory failed due to the cache being blocked
system.switch_cpus.power_state.pwrStateResidencyTicks::OFF   2255875600                       # Cumulative time (in ticks) in various power states
system.switch_cpus.rename.squashCycles          28289                       # Number of cycles rename is squashing
system.switch_cpus.rename.idleCycles          1055849                       # Number of cycles rename is idle
system.switch_cpus.rename.blockCycles         1324374                       # Number of cycles rename is blocking
system.switch_cpus.rename.serializeStallCycles          421                       # count of cycles rename stalledfor serializing inst
system.switch_cpus.rename.runCycles           1430689                       # Number of cycles rename is running
system.switch_cpus.rename.unblockCycles       1800067                       # Number of cycles rename is unblocking
system.switch_cpus.rename.renamedInsts       13575955                       # Number of instructions processed by rename
system.switch_cpus.rename.squashedInsts         61274                       # Number of squashed instructions processed by rename
system.switch_cpus.rename.IQFullEvents          16577                       # Number of times rename has blocked due to IQ full
system.switch_cpus.rename.SQFullEvents            558                       # Number of times rename has blocked due to SQ full
system.switch_cpus.rename.fullRegistersEvents      1690318                       # Number of times there has been no free registers
system.switch_cpus.rename.renamedOperands     12597811                       # Number of destination operands rename has renamed
system.switch_cpus.rename.lookups            19388273                       # Number of register rename lookups that rename has made
system.switch_cpus.rename.intLookups         17188325                       # Number of integer rename lookups
system.switch_cpus.rename.committedMaps      10439977                       # Number of HB maps that are committed
system.switch_cpus.rename.undoneMaps          2157812                       # Number of HB maps that are undone due to squashing
system.switch_cpus.rename.serializing              23                       # count of serializing insts renamed
system.switch_cpus.rename.tempSerializing            0                       # count of temporary serializing insts renamed
system.switch_cpus.rename.skidInsts           4699142                       # count of insts added to the skid buffer
system.switch_cpus.rob.reads                 16377652                       # The number of ROB reads
system.switch_cpus.rob.writes                27445207                       # The number of ROB writes
system.switch_cpus.thread_0.numInsts         10000001                       # Number of Instructions committed
system.switch_cpus.thread_0.numOps           11060692                       # Number of Ops committed
system.switch_cpus.thread_0.numMemRefs              0                       # Number of Memory References
system.tol2bus.trans_dist::ReadResp                43                       # Transaction distribution
system.tol2bus.trans_dist::WritebackDirty          154                       # Transaction distribution
system.tol2bus.trans_dist::WritebackClean            4                       # Transaction distribution
system.tol2bus.trans_dist::HardPFReq              304                       # Transaction distribution
system.tol2bus.trans_dist::ReadExReq              232                       # Transaction distribution
system.tol2bus.trans_dist::ReadExResp             232                       # Transaction distribution
system.tol2bus.trans_dist::ReadSharedReq           43                       # Transaction distribution
system.tol2bus.pkt_count_system.cpu.dcache.mem_side_port::system.l2.cpu_side_port          708                       # Packet count per connected requestor and responder (bytes)
system.tol2bus.pkt_count::total                   708                       # Packet count per connected requestor and responder (bytes)
system.tol2bus.pkt_size_system.cpu.dcache.mem_side_port::system.l2.cpu_side_port        55424                       # Cumulative packet size per connected requestor and responder (bytes)
system.tol2bus.pkt_size::total                  55424                       # Cumulative packet size per connected requestor and responder (bytes)
system.tol2bus.snoops                             304                       # Total snoops (count)
system.tol2bus.snoopTraffic                         0                       # Total snoop traffic (bytes)
system.tol2bus.snoop_fanout::samples              579                       # Request fanout histogram
system.tol2bus.snoop_fanout::mean            0.017271                       # Request fanout histogram
system.tol2bus.snoop_fanout::stdev           0.130393                       # Request fanout histogram
system.tol2bus.snoop_fanout::underflows             0      0.00%      0.00% # Request fanout histogram
system.tol2bus.snoop_fanout::0                    569     98.27%     98.27% # Request fanout histogram
system.tol2bus.snoop_fanout::1                     10      1.73%    100.00% # Request fanout histogram
system.tol2bus.snoop_fanout::2                      0      0.00%    100.00% # Request fanout histogram
system.tol2bus.snoop_fanout::3                      0      0.00%    100.00% # Request fanout histogram
system.tol2bus.snoop_fanout::4                      0      0.00%    100.00% # Request fanout histogram
system.tol2bus.snoop_fanout::overflows              0      0.00%    100.00% # Request fanout histogram
system.tol2bus.snoop_fanout::min_value              0                       # Request fanout histogram
system.tol2bus.snoop_fanout::max_value              1                       # Request fanout histogram
system.tol2bus.snoop_fanout::total                579                       # Request fanout histogram
system.tol2bus.power_state.pwrStateResidencyTicks::UNDEFINED   2255875600                       # Cumulative time (in ticks) in various power states
system.tol2bus.reqLayer0.occupancy             426000                       # Layer occupancy (ticks)
system.tol2bus.reqLayer0.utilization              0.0                       # Layer utilization (%)
system.tol2bus.respLayer1.occupancy            550000                       # Layer occupancy (ticks)
system.tol2bus.respLayer1.utilization             0.0                       # Layer utilization (%)
system.voltage_domain.voltage                       1                       # Voltage in Volts

---------- End Simulation Statistics   ----------
