
---------- Begin Simulation Statistics ----------
final_tick                               238124554000                       # Number of ticks from beginning of simulation (restored from checkpoints and never reset)
host_inst_rate                                 357575                       # Simulator instruction rate (inst/s)
host_mem_usage                               16974224                       # Number of bytes of host memory used
host_op_rate                                   393886                       # Simulator op (including micro ops) rate (op/s)
host_seconds                                     2.80                       # Real time elapsed on the host
host_tick_rate                               77776205                       # Simulator tick rate (ticks/s)
sim_freq                                 1000000000000                       # Frequency of simulated ticks
sim_insts                                     1000025                       # Number of instructions simulated
sim_ops                                       1101595                       # Number of ops (including micro ops) simulated
sim_seconds                                  0.000218                       # Number of seconds simulated
sim_ticks                                   217520400                       # Number of ticks simulated
system.cpu.Branches                                 2                       # Number of branches fetched
system.cpu.committedInsts                          23                       # Number of instructions committed
system.cpu.committedOps                            27                       # Number of ops (including micro ops) committed
system.cpu.idle_fraction                            0                       # Percentage of idle cycles
system.cpu.not_idle_fraction                        1                       # Percentage of non-idle cycles
system.cpu.numCycles                               27                       # number of cpu cycles simulated
system.cpu.numWorkItemsCompleted                    0                       # number of work items this cpu completed
system.cpu.numWorkItemsStarted                      0                       # number of work items this cpu started
system.cpu.num_busy_cycles                         27                       # Number of busy cycles
system.cpu.num_conditional_control_insts            0                       # number of instructions that are conditional controls
system.cpu.num_fp_alu_accesses                      0                       # Number of float alu accesses
system.cpu.num_fp_insts                             0                       # number of float instructions
system.cpu.num_fp_register_reads                    0                       # number of times the floating registers were read
system.cpu.num_fp_register_writes                   0                       # number of times the floating registers were written
system.cpu.num_func_calls                           2                       # number of times a function call or return occured
system.cpu.num_idle_cycles                          0                       # Number of idle cycles
system.cpu.num_int_alu_accesses                    27                       # Number of integer alu accesses
system.cpu.num_int_insts                           27                       # number of integer instructions
system.cpu.num_int_register_reads                  29                       # number of times the integer registers were read
system.cpu.num_int_register_writes                 24                       # number of times the integer registers were written
system.cpu.num_load_insts                          17                       # Number of load instructions
system.cpu.num_mem_refs                            20                       # number of memory refs
system.cpu.num_store_insts                          3                       # Number of store instructions
system.cpu.num_vec_alu_accesses                     0                       # Number of vector alu accesses
system.cpu.num_vec_insts                            0                       # number of vector instructions
system.cpu.num_vec_register_reads                   0                       # number of times the vector registers were read
system.cpu.num_vec_register_writes                  0                       # number of times the vector registers were written
system.cpu.op_class::No_OpClass                     0      0.00%      0.00% # Class of executed instruction
system.cpu.op_class::IntAlu                         7     25.93%     25.93% # Class of executed instruction
system.cpu.op_class::IntMult                        0      0.00%     25.93% # Class of executed instruction
system.cpu.op_class::IntDiv                         0      0.00%     25.93% # Class of executed instruction
system.cpu.op_class::FloatAdd                       0      0.00%     25.93% # Class of executed instruction
system.cpu.op_class::FloatCmp                       0      0.00%     25.93% # Class of executed instruction
system.cpu.op_class::FloatCvt                       0      0.00%     25.93% # Class of executed instruction
system.cpu.op_class::FloatMult                      0      0.00%     25.93% # Class of executed instruction
system.cpu.op_class::FloatMultAcc                   0      0.00%     25.93% # Class of executed instruction
system.cpu.op_class::FloatDiv                       0      0.00%     25.93% # Class of executed instruction
system.cpu.op_class::FloatMisc                      0      0.00%     25.93% # Class of executed instruction
system.cpu.op_class::FloatSqrt                      0      0.00%     25.93% # Class of executed instruction
system.cpu.op_class::SimdAdd                        0      0.00%     25.93% # Class of executed instruction
system.cpu.op_class::SimdAddAcc                     0      0.00%     25.93% # Class of executed instruction
system.cpu.op_class::SimdAlu                        0      0.00%     25.93% # Class of executed instruction
system.cpu.op_class::SimdCmp                        0      0.00%     25.93% # Class of executed instruction
system.cpu.op_class::SimdCvt                        0      0.00%     25.93% # Class of executed instruction
system.cpu.op_class::SimdMisc                       0      0.00%     25.93% # Class of executed instruction
system.cpu.op_class::SimdMult                       0      0.00%     25.93% # Class of executed instruction
system.cpu.op_class::SimdMultAcc                    0      0.00%     25.93% # Class of executed instruction
system.cpu.op_class::SimdShift                      0      0.00%     25.93% # Class of executed instruction
system.cpu.op_class::SimdShiftAcc                   0      0.00%     25.93% # Class of executed instruction
system.cpu.op_class::SimdDiv                        0      0.00%     25.93% # Class of executed instruction
system.cpu.op_class::SimdSqrt                       0      0.00%     25.93% # Class of executed instruction
system.cpu.op_class::SimdFloatAdd                   0      0.00%     25.93% # Class of executed instruction
system.cpu.op_class::SimdFloatAlu                   0      0.00%     25.93% # Class of executed instruction
system.cpu.op_class::SimdFloatCmp                   0      0.00%     25.93% # Class of executed instruction
system.cpu.op_class::SimdFloatCvt                   0      0.00%     25.93% # Class of executed instruction
system.cpu.op_class::SimdFloatDiv                   0      0.00%     25.93% # Class of executed instruction
system.cpu.op_class::SimdFloatMisc                  0      0.00%     25.93% # Class of executed instruction
system.cpu.op_class::SimdFloatMult                  0      0.00%     25.93% # Class of executed instruction
system.cpu.op_class::SimdFloatMultAcc               0      0.00%     25.93% # Class of executed instruction
system.cpu.op_class::SimdFloatSqrt                  0      0.00%     25.93% # Class of executed instruction
system.cpu.op_class::SimdReduceAdd                  0      0.00%     25.93% # Class of executed instruction
system.cpu.op_class::SimdReduceAlu                  0      0.00%     25.93% # Class of executed instruction
system.cpu.op_class::SimdReduceCmp                  0      0.00%     25.93% # Class of executed instruction
system.cpu.op_class::SimdFloatReduceAdd             0      0.00%     25.93% # Class of executed instruction
system.cpu.op_class::SimdFloatReduceCmp             0      0.00%     25.93% # Class of executed instruction
system.cpu.op_class::SimdAes                        0      0.00%     25.93% # Class of executed instruction
system.cpu.op_class::SimdAesMix                     0      0.00%     25.93% # Class of executed instruction
system.cpu.op_class::SimdSha1Hash                   0      0.00%     25.93% # Class of executed instruction
system.cpu.op_class::SimdSha1Hash2                  0      0.00%     25.93% # Class of executed instruction
system.cpu.op_class::SimdSha256Hash                 0      0.00%     25.93% # Class of executed instruction
system.cpu.op_class::SimdSha256Hash2                0      0.00%     25.93% # Class of executed instruction
system.cpu.op_class::SimdShaSigma2                  0      0.00%     25.93% # Class of executed instruction
system.cpu.op_class::SimdShaSigma3                  0      0.00%     25.93% # Class of executed instruction
system.cpu.op_class::SimdPredAlu                    0      0.00%     25.93% # Class of executed instruction
system.cpu.op_class::MemRead                       17     62.96%     88.89% # Class of executed instruction
system.cpu.op_class::MemWrite                       3     11.11%    100.00% # Class of executed instruction
system.cpu.op_class::FloatMemRead                   0      0.00%    100.00% # Class of executed instruction
system.cpu.op_class::FloatMemWrite                  0      0.00%    100.00% # Class of executed instruction
system.cpu.op_class::IprAccess                      0      0.00%    100.00% # Class of executed instruction
system.cpu.op_class::InstPrefetch                   0      0.00%    100.00% # Class of executed instruction
system.cpu.op_class::total                         27                       # Class of executed instruction
system.cpu.workload.numSyscalls                     0                       # Number of system calls
system.membus.snoop_filter.hit_multi_requests            0                       # Number of requests hitting in the snoop filter with multiple (>1) holders of the requested data.
system.membus.snoop_filter.hit_multi_snoops            0                       # Number of snoops hitting in the snoop filter with multiple (>1) holders of the requested data.
system.membus.snoop_filter.hit_single_requests            0                       # Number of requests hitting in the snoop filter with a single holder of the requested data.
system.membus.snoop_filter.hit_single_snoops            0                       # Number of snoops hitting in the snoop filter with a single holder of the requested data.
system.membus.snoop_filter.tot_requests           185                       # Total number of requests made to the snoop filter.
system.membus.snoop_filter.tot_snoops               0                       # Total number of snoops made to the snoop filter.
system.switch_cpus.cc_regfile_reads            203964                       # number of cc regfile reads
system.switch_cpus.cc_regfile_writes           204675                       # number of cc regfile writes
system.switch_cpus.committedInsts             1000002                       # Number of Instructions Simulated
system.switch_cpus.committedOps               1101568                       # Number of Ops (including micro ops) Simulated
system.switch_cpus.cpi                       0.543773                       # CPI: Cycles Per Instruction
system.switch_cpus.cpi_total                 0.543773                       # CPI: Total CPI of All Threads
system.switch_cpus.idleCycles                    2534                       # Total number of cycles that the CPU has spent unscheduled due to idling
system.switch_cpus.iew.branchMispredicts         2512                       # Number of branch mispredicts detected at execute
system.switch_cpus.iew.exec_branches           128777                       # Number of branches executed
system.switch_cpus.iew.exec_nop                  3826                       # number of nop insts executed
system.switch_cpus.iew.exec_rate             2.281330                       # Inst execution rate
system.switch_cpus.iew.exec_refs               559234                       # number of memory reference insts executed
system.switch_cpus.iew.exec_stores             199276                       # Number of stores executed
system.switch_cpus.iew.exec_swp                     0                       # number of swp insts executed
system.switch_cpus.iew.iewBlockCycles           49704                       # Number of cycles IEW is blocking
system.switch_cpus.iew.iewDispLoadInsts        363574                       # Number of dispatched load instructions
system.switch_cpus.iew.iewDispNonSpecInsts            0                       # Number of dispatched non-speculative instructions
system.switch_cpus.iew.iewDispSquashedInsts            0                       # Number of squashed instructions skipped by dispatch
system.switch_cpus.iew.iewDispStoreInsts       220665                       # Number of dispatched store instructions
system.switch_cpus.iew.iewDispatchedInsts      1310515                       # Number of instructions dispatched to IQ
system.switch_cpus.iew.iewExecLoadInsts        359958                       # Number of load instructions executed
system.switch_cpus.iew.iewExecSquashedInsts         5826                       # Number of squashed instructions skipped in execute
system.switch_cpus.iew.iewExecutedInsts       1240528                       # Number of executed instructions
system.switch_cpus.iew.iewIQFullEvents              0                       # Number of times the IQ has become full, causing a stall
system.switch_cpus.iew.iewIdleCycles                0                       # Number of cycles IEW is idle
system.switch_cpus.iew.iewLSQFullEvents             0                       # Number of times the LSQ has become full, causing a stall
system.switch_cpus.iew.iewSquashCycles           2658                       # Number of cycles IEW is squashing
system.switch_cpus.iew.iewUnblockCycles             0                       # Number of cycles IEW is unblocking
system.switch_cpus.iew.memOrderViolationEvents          183                       # Number of memory order violations
system.switch_cpus.iew.predictedNotTakenIncorrect          835                       # Number of branches that were predicted not taken incorrectly
system.switch_cpus.iew.predictedTakenIncorrect         1677                       # Number of branches that were predicted taken incorrectly
system.switch_cpus.iew.wb_consumers           1362867                       # num instructions consuming a value
system.switch_cpus.iew.wb_count               1218443                       # cumulative count of insts written-back
system.switch_cpus.iew.wb_fanout             0.647208                       # average fanout of values written-back
system.switch_cpus.iew.wb_producers            882058                       # num instructions producing a value
system.switch_cpus.iew.wb_rate               2.240716                       # insts written-back per cycle
system.switch_cpus.iew.wb_sent                1219563                       # cumulative count of insts sent to commit
system.switch_cpus.int_regfile_reads          1562598                       # number of integer regfile reads
system.switch_cpus.int_regfile_writes          951133                       # number of integer regfile writes
system.switch_cpus.ipc                       1.839003                       # IPC: Instructions Per Cycle
system.switch_cpus.ipc_total                 1.839003                       # IPC: Total IPC of All Threads
system.switch_cpus.iq.FU_type_0::No_OpClass           16      0.00%      0.00% # Type of FU issued
system.switch_cpus.iq.FU_type_0::IntAlu        641217     51.45%     51.45% # Type of FU issued
system.switch_cpus.iq.FU_type_0::IntMult        40422      3.24%     54.69% # Type of FU issued
system.switch_cpus.iq.FU_type_0::IntDiv             0      0.00%     54.69% # Type of FU issued
system.switch_cpus.iq.FU_type_0::FloatAdd            0      0.00%     54.69% # Type of FU issued
system.switch_cpus.iq.FU_type_0::FloatCmp            0      0.00%     54.69% # Type of FU issued
system.switch_cpus.iq.FU_type_0::FloatCvt            0      0.00%     54.69% # Type of FU issued
system.switch_cpus.iq.FU_type_0::FloatMult            0      0.00%     54.69% # Type of FU issued
system.switch_cpus.iq.FU_type_0::FloatMultAcc            0      0.00%     54.69% # Type of FU issued
system.switch_cpus.iq.FU_type_0::FloatDiv            0      0.00%     54.69% # Type of FU issued
system.switch_cpus.iq.FU_type_0::FloatMisc            0      0.00%     54.69% # Type of FU issued
system.switch_cpus.iq.FU_type_0::FloatSqrt            0      0.00%     54.69% # Type of FU issued
system.switch_cpus.iq.FU_type_0::SimdAdd            0      0.00%     54.69% # Type of FU issued
system.switch_cpus.iq.FU_type_0::SimdAddAcc            0      0.00%     54.69% # Type of FU issued
system.switch_cpus.iq.FU_type_0::SimdAlu            0      0.00%     54.69% # Type of FU issued
system.switch_cpus.iq.FU_type_0::SimdCmp            0      0.00%     54.69% # Type of FU issued
system.switch_cpus.iq.FU_type_0::SimdCvt            0      0.00%     54.69% # Type of FU issued
system.switch_cpus.iq.FU_type_0::SimdMisc            0      0.00%     54.69% # Type of FU issued
system.switch_cpus.iq.FU_type_0::SimdMult            0      0.00%     54.69% # Type of FU issued
system.switch_cpus.iq.FU_type_0::SimdMultAcc            0      0.00%     54.69% # Type of FU issued
system.switch_cpus.iq.FU_type_0::SimdShift            0      0.00%     54.69% # Type of FU issued
system.switch_cpus.iq.FU_type_0::SimdShiftAcc            0      0.00%     54.69% # Type of FU issued
system.switch_cpus.iq.FU_type_0::SimdDiv            0      0.00%     54.69% # Type of FU issued
system.switch_cpus.iq.FU_type_0::SimdSqrt            0      0.00%     54.69% # Type of FU issued
system.switch_cpus.iq.FU_type_0::SimdFloatAdd            0      0.00%     54.69% # Type of FU issued
system.switch_cpus.iq.FU_type_0::SimdFloatAlu            0      0.00%     54.69% # Type of FU issued
system.switch_cpus.iq.FU_type_0::SimdFloatCmp            0      0.00%     54.69% # Type of FU issued
system.switch_cpus.iq.FU_type_0::SimdFloatCvt            0      0.00%     54.69% # Type of FU issued
system.switch_cpus.iq.FU_type_0::SimdFloatDiv            0      0.00%     54.69% # Type of FU issued
system.switch_cpus.iq.FU_type_0::SimdFloatMisc            0      0.00%     54.69% # Type of FU issued
system.switch_cpus.iq.FU_type_0::SimdFloatMult            0      0.00%     54.69% # Type of FU issued
system.switch_cpus.iq.FU_type_0::SimdFloatMultAcc            0      0.00%     54.69% # Type of FU issued
system.switch_cpus.iq.FU_type_0::SimdFloatSqrt            0      0.00%     54.69% # Type of FU issued
system.switch_cpus.iq.FU_type_0::SimdReduceAdd            0      0.00%     54.69% # Type of FU issued
system.switch_cpus.iq.FU_type_0::SimdReduceAlu            0      0.00%     54.69% # Type of FU issued
system.switch_cpus.iq.FU_type_0::SimdReduceCmp            0      0.00%     54.69% # Type of FU issued
system.switch_cpus.iq.FU_type_0::SimdFloatReduceAdd            0      0.00%     54.69% # Type of FU issued
system.switch_cpus.iq.FU_type_0::SimdFloatReduceCmp            0      0.00%     54.69% # Type of FU issued
system.switch_cpus.iq.FU_type_0::SimdAes            0      0.00%     54.69% # Type of FU issued
system.switch_cpus.iq.FU_type_0::SimdAesMix            0      0.00%     54.69% # Type of FU issued
system.switch_cpus.iq.FU_type_0::SimdSha1Hash            0      0.00%     54.69% # Type of FU issued
system.switch_cpus.iq.FU_type_0::SimdSha1Hash2            0      0.00%     54.69% # Type of FU issued
system.switch_cpus.iq.FU_type_0::SimdSha256Hash            0      0.00%     54.69% # Type of FU issued
system.switch_cpus.iq.FU_type_0::SimdSha256Hash2            0      0.00%     54.69% # Type of FU issued
system.switch_cpus.iq.FU_type_0::SimdShaSigma2            0      0.00%     54.69% # Type of FU issued
system.switch_cpus.iq.FU_type_0::SimdShaSigma3            0      0.00%     54.69% # Type of FU issued
system.switch_cpus.iq.FU_type_0::SimdPredAlu            0      0.00%     54.69% # Type of FU issued
system.switch_cpus.iq.FU_type_0::MemRead       362543     29.09%     83.78% # Type of FU issued
system.switch_cpus.iq.FU_type_0::MemWrite       202161     16.22%    100.00% # Type of FU issued
system.switch_cpus.iq.FU_type_0::FloatMemRead            0      0.00%    100.00% # Type of FU issued
system.switch_cpus.iq.FU_type_0::FloatMemWrite            0      0.00%    100.00% # Type of FU issued
system.switch_cpus.iq.FU_type_0::IprAccess            0      0.00%    100.00% # Type of FU issued
system.switch_cpus.iq.FU_type_0::InstPrefetch            0      0.00%    100.00% # Type of FU issued
system.switch_cpus.iq.FU_type_0::total        1246359                       # Type of FU issued
system.switch_cpus.iq.fp_alu_accesses               0                       # Number of floating point alu accesses
system.switch_cpus.iq.fp_inst_queue_reads            0                       # Number of floating instruction queue reads
system.switch_cpus.iq.fp_inst_queue_wakeup_accesses            0                       # Number of floating instruction queue wakeup accesses
system.switch_cpus.iq.fp_inst_queue_writes            0                       # Number of floating instruction queue writes
system.switch_cpus.iq.fu_busy_cnt              541184                       # FU busy when requested
system.switch_cpus.iq.fu_busy_rate           0.434212                       # FU busy rate (busy events/executed inst)
system.switch_cpus.iq.fu_full::No_OpClass            0      0.00%      0.00% # attempts to use FU when none available
system.switch_cpus.iq.fu_full::IntAlu          181906     33.61%     33.61% # attempts to use FU when none available
system.switch_cpus.iq.fu_full::IntMult             57      0.01%     33.62% # attempts to use FU when none available
system.switch_cpus.iq.fu_full::IntDiv               0      0.00%     33.62% # attempts to use FU when none available
system.switch_cpus.iq.fu_full::FloatAdd             0      0.00%     33.62% # attempts to use FU when none available
system.switch_cpus.iq.fu_full::FloatCmp             0      0.00%     33.62% # attempts to use FU when none available
system.switch_cpus.iq.fu_full::FloatCvt             0      0.00%     33.62% # attempts to use FU when none available
system.switch_cpus.iq.fu_full::FloatMult            0      0.00%     33.62% # attempts to use FU when none available
system.switch_cpus.iq.fu_full::FloatMultAcc            0      0.00%     33.62% # attempts to use FU when none available
system.switch_cpus.iq.fu_full::FloatDiv             0      0.00%     33.62% # attempts to use FU when none available
system.switch_cpus.iq.fu_full::FloatMisc            0      0.00%     33.62% # attempts to use FU when none available
system.switch_cpus.iq.fu_full::FloatSqrt            0      0.00%     33.62% # attempts to use FU when none available
system.switch_cpus.iq.fu_full::SimdAdd              0      0.00%     33.62% # attempts to use FU when none available
system.switch_cpus.iq.fu_full::SimdAddAcc            0      0.00%     33.62% # attempts to use FU when none available
system.switch_cpus.iq.fu_full::SimdAlu              0      0.00%     33.62% # attempts to use FU when none available
system.switch_cpus.iq.fu_full::SimdCmp              0      0.00%     33.62% # attempts to use FU when none available
system.switch_cpus.iq.fu_full::SimdCvt              0      0.00%     33.62% # attempts to use FU when none available
system.switch_cpus.iq.fu_full::SimdMisc             0      0.00%     33.62% # attempts to use FU when none available
system.switch_cpus.iq.fu_full::SimdMult             0      0.00%     33.62% # attempts to use FU when none available
system.switch_cpus.iq.fu_full::SimdMultAcc            0      0.00%     33.62% # attempts to use FU when none available
system.switch_cpus.iq.fu_full::SimdShift            0      0.00%     33.62% # attempts to use FU when none available
system.switch_cpus.iq.fu_full::SimdShiftAcc            0      0.00%     33.62% # attempts to use FU when none available
system.switch_cpus.iq.fu_full::SimdDiv              0      0.00%     33.62% # attempts to use FU when none available
system.switch_cpus.iq.fu_full::SimdSqrt             0      0.00%     33.62% # attempts to use FU when none available
system.switch_cpus.iq.fu_full::SimdFloatAdd            0      0.00%     33.62% # attempts to use FU when none available
system.switch_cpus.iq.fu_full::SimdFloatAlu            0      0.00%     33.62% # attempts to use FU when none available
system.switch_cpus.iq.fu_full::SimdFloatCmp            0      0.00%     33.62% # attempts to use FU when none available
system.switch_cpus.iq.fu_full::SimdFloatCvt            0      0.00%     33.62% # attempts to use FU when none available
system.switch_cpus.iq.fu_full::SimdFloatDiv            0      0.00%     33.62% # attempts to use FU when none available
system.switch_cpus.iq.fu_full::SimdFloatMisc            0      0.00%     33.62% # attempts to use FU when none available
system.switch_cpus.iq.fu_full::SimdFloatMult            0      0.00%     33.62% # attempts to use FU when none available
system.switch_cpus.iq.fu_full::SimdFloatMultAcc            0      0.00%     33.62% # attempts to use FU when none available
system.switch_cpus.iq.fu_full::SimdFloatSqrt            0      0.00%     33.62% # attempts to use FU when none available
system.switch_cpus.iq.fu_full::SimdReduceAdd            0      0.00%     33.62% # attempts to use FU when none available
system.switch_cpus.iq.fu_full::SimdReduceAlu            0      0.00%     33.62% # attempts to use FU when none available
system.switch_cpus.iq.fu_full::SimdReduceCmp            0      0.00%     33.62% # attempts to use FU when none available
system.switch_cpus.iq.fu_full::SimdFloatReduceAdd            0      0.00%     33.62% # attempts to use FU when none available
system.switch_cpus.iq.fu_full::SimdFloatReduceCmp            0      0.00%     33.62% # attempts to use FU when none available
system.switch_cpus.iq.fu_full::SimdAes              0      0.00%     33.62% # attempts to use FU when none available
system.switch_cpus.iq.fu_full::SimdAesMix            0      0.00%     33.62% # attempts to use FU when none available
system.switch_cpus.iq.fu_full::SimdSha1Hash            0      0.00%     33.62% # attempts to use FU when none available
system.switch_cpus.iq.fu_full::SimdSha1Hash2            0      0.00%     33.62% # attempts to use FU when none available
system.switch_cpus.iq.fu_full::SimdSha256Hash            0      0.00%     33.62% # attempts to use FU when none available
system.switch_cpus.iq.fu_full::SimdSha256Hash2            0      0.00%     33.62% # attempts to use FU when none available
system.switch_cpus.iq.fu_full::SimdShaSigma2            0      0.00%     33.62% # attempts to use FU when none available
system.switch_cpus.iq.fu_full::SimdShaSigma3            0      0.00%     33.62% # attempts to use FU when none available
system.switch_cpus.iq.fu_full::SimdPredAlu            0      0.00%     33.62% # attempts to use FU when none available
system.switch_cpus.iq.fu_full::MemRead         286662     52.97%     86.59% # attempts to use FU when none available
system.switch_cpus.iq.fu_full::MemWrite         72559     13.41%    100.00% # attempts to use FU when none available
system.switch_cpus.iq.fu_full::FloatMemRead            0      0.00%    100.00% # attempts to use FU when none available
system.switch_cpus.iq.fu_full::FloatMemWrite            0      0.00%    100.00% # attempts to use FU when none available
system.switch_cpus.iq.fu_full::IprAccess            0      0.00%    100.00% # attempts to use FU when none available
system.switch_cpus.iq.fu_full::InstPrefetch            0      0.00%    100.00% # attempts to use FU when none available
system.switch_cpus.iq.int_alu_accesses        1787527                       # Number of integer alu accesses
system.switch_cpus.iq.int_inst_queue_reads      3583189                       # Number of integer instruction queue reads
system.switch_cpus.iq.int_inst_queue_wakeup_accesses      1218443                       # Number of integer instruction queue wakeup accesses
system.switch_cpus.iq.int_inst_queue_writes      1511884                       # Number of integer instruction queue writes
system.switch_cpus.iq.iqInstsAdded            1306689                       # Number of instructions added to the IQ (excludes non-spec)
system.switch_cpus.iq.iqInstsIssued           1246359                       # Number of instructions issued
system.switch_cpus.iq.iqSquashedInstsExamined       205012                       # Number of squashed instructions iterated over during squash; mainly for profiling
system.switch_cpus.iq.iqSquashedInstsIssued         8052                       # Number of squashed instructions issued
system.switch_cpus.iq.iqSquashedOperandsExamined       137418                       # Number of squashed operands that are examined and possibly removed from graph
system.switch_cpus.iq.issued_per_cycle::samples       541240                       # Number of insts issued each cycle
system.switch_cpus.iq.issued_per_cycle::mean     2.302784                       # Number of insts issued each cycle
system.switch_cpus.iq.issued_per_cycle::stdev     1.334955                       # Number of insts issued each cycle
system.switch_cpus.iq.issued_per_cycle::underflows            0      0.00%      0.00% # Number of insts issued each cycle
system.switch_cpus.iq.issued_per_cycle::0        80119     14.80%     14.80% # Number of insts issued each cycle
system.switch_cpus.iq.issued_per_cycle::1        69731     12.88%     27.69% # Number of insts issued each cycle
system.switch_cpus.iq.issued_per_cycle::2       106079     19.60%     47.29% # Number of insts issued each cycle
system.switch_cpus.iq.issued_per_cycle::3       183292     33.87%     81.15% # Number of insts issued each cycle
system.switch_cpus.iq.issued_per_cycle::4        95501     17.64%     98.80% # Number of insts issued each cycle
system.switch_cpus.iq.issued_per_cycle::5         6518      1.20%    100.00% # Number of insts issued each cycle
system.switch_cpus.iq.issued_per_cycle::6            0      0.00%    100.00% # Number of insts issued each cycle
system.switch_cpus.iq.issued_per_cycle::7            0      0.00%    100.00% # Number of insts issued each cycle
system.switch_cpus.iq.issued_per_cycle::8            0      0.00%    100.00% # Number of insts issued each cycle
system.switch_cpus.iq.issued_per_cycle::overflows            0      0.00%    100.00% # Number of insts issued each cycle
system.switch_cpus.iq.issued_per_cycle::min_value            0                       # Number of insts issued each cycle
system.switch_cpus.iq.issued_per_cycle::max_value            5                       # Number of insts issued each cycle
system.switch_cpus.iq.issued_per_cycle::total       541240                       # Number of insts issued each cycle
system.switch_cpus.iq.rate                   2.292053                       # Inst issue rate
system.switch_cpus.iq.vec_alu_accesses              0                       # Number of vector alu accesses
system.switch_cpus.iq.vec_inst_queue_reads            0                       # Number of vector instruction queue reads
system.switch_cpus.iq.vec_inst_queue_wakeup_accesses            0                       # Number of vector instruction queue wakeup accesses
system.switch_cpus.iq.vec_inst_queue_writes            0                       # Number of vector instruction queue writes
system.switch_cpus.memDep0.conflictingLoads       175458                       # Number of conflicting loads.
system.switch_cpus.memDep0.conflictingStores        27832                       # Number of conflicting stores.
system.switch_cpus.memDep0.insertedLoads       363574                       # Number of loads inserted to the mem dependence unit.
system.switch_cpus.memDep0.insertedStores       220665                       # Number of stores inserted to the mem dependence unit.
system.switch_cpus.misc_regfile_reads         2734445                       # number of misc regfile reads
system.switch_cpus.misc_regfile_writes              1                       # number of misc regfile writes
system.switch_cpus.numCycles                   543774                       # number of cpu cycles simulated
system.switch_cpus.numWorkItemsCompleted            0                       # number of work items this cpu completed
system.switch_cpus.numWorkItemsStarted              0                       # number of work items this cpu started
system.switch_cpus.timesIdled                      31                       # Number of times that the entire CPU went into an idle state and unscheduled itself
system.switch_cpus.vec_regfile_writes              44                       # number of vector regfile writes
system.tol2bus.snoop_filter.hit_multi_requests            0                       # Number of requests hitting in the snoop filter with multiple (>1) holders of the requested data.
system.tol2bus.snoop_filter.hit_multi_snoops            0                       # Number of snoops hitting in the snoop filter with multiple (>1) holders of the requested data.
system.tol2bus.snoop_filter.hit_single_requests           57                       # Number of requests hitting in the snoop filter with a single holder of the requested data.
system.tol2bus.snoop_filter.hit_single_snoops            0                       # Number of snoops hitting in the snoop filter with a single holder of the requested data.
system.tol2bus.snoop_filter.tot_requests          248                       # Total number of requests made to the snoop filter.
system.tol2bus.snoop_filter.tot_snoops              0                       # Total number of snoops made to the snoop filter.
system.clk_domain.clock                          1000                       # Clock period in ticks
system.cpu.dcache.demand_hits::.cpu.data           15                       # number of demand (read+write) hits
system.cpu.dcache.demand_hits::.switch_cpus.data       331994                       # number of demand (read+write) hits
system.cpu.dcache.demand_hits::total           332009                       # number of demand (read+write) hits
system.cpu.dcache.overall_hits::.cpu.data           15                       # number of overall hits
system.cpu.dcache.overall_hits::.switch_cpus.data       331994                       # number of overall hits
system.cpu.dcache.overall_hits::total          332009                       # number of overall hits
system.cpu.dcache.demand_misses::.cpu.data            5                       # number of demand (read+write) misses
system.cpu.dcache.demand_misses::.switch_cpus.data          244                       # number of demand (read+write) misses
system.cpu.dcache.demand_misses::total            249                       # number of demand (read+write) misses
system.cpu.dcache.overall_misses::.cpu.data            5                       # number of overall misses
system.cpu.dcache.overall_misses::.switch_cpus.data          244                       # number of overall misses
system.cpu.dcache.overall_misses::total           249                       # number of overall misses
system.cpu.dcache.demand_miss_latency::.switch_cpus.data      9653600                       # number of demand (read+write) miss cycles
system.cpu.dcache.demand_miss_latency::total      9653600                       # number of demand (read+write) miss cycles
system.cpu.dcache.overall_miss_latency::.switch_cpus.data      9653600                       # number of overall miss cycles
system.cpu.dcache.overall_miss_latency::total      9653600                       # number of overall miss cycles
system.cpu.dcache.demand_accesses::.cpu.data           20                       # number of demand (read+write) accesses
system.cpu.dcache.demand_accesses::.switch_cpus.data       332238                       # number of demand (read+write) accesses
system.cpu.dcache.demand_accesses::total       332258                       # number of demand (read+write) accesses
system.cpu.dcache.overall_accesses::.cpu.data           20                       # number of overall (read+write) accesses
system.cpu.dcache.overall_accesses::.switch_cpus.data       332238                       # number of overall (read+write) accesses
system.cpu.dcache.overall_accesses::total       332258                       # number of overall (read+write) accesses
system.cpu.dcache.demand_miss_rate::.cpu.data     0.250000                       # miss rate for demand accesses
system.cpu.dcache.demand_miss_rate::.switch_cpus.data     0.000734                       # miss rate for demand accesses
system.cpu.dcache.demand_miss_rate::total     0.000749                       # miss rate for demand accesses
system.cpu.dcache.overall_miss_rate::.cpu.data     0.250000                       # miss rate for overall accesses
system.cpu.dcache.overall_miss_rate::.switch_cpus.data     0.000734                       # miss rate for overall accesses
system.cpu.dcache.overall_miss_rate::total     0.000749                       # miss rate for overall accesses
system.cpu.dcache.demand_avg_miss_latency::.switch_cpus.data 39563.934426                       # average overall miss latency
system.cpu.dcache.demand_avg_miss_latency::total 38769.477912                       # average overall miss latency
system.cpu.dcache.overall_avg_miss_latency::.switch_cpus.data 39563.934426                       # average overall miss latency
system.cpu.dcache.overall_avg_miss_latency::total 38769.477912                       # average overall miss latency
system.cpu.dcache.blocked_cycles::no_mshrs            0                       # number of cycles access was blocked
system.cpu.dcache.blocked_cycles::no_targets            0                       # number of cycles access was blocked
system.cpu.dcache.blocked::no_mshrs                 0                       # number of cycles access was blocked
system.cpu.dcache.blocked::no_targets               0                       # number of cycles access was blocked
system.cpu.dcache.avg_blocked_cycles::no_mshrs          nan                       # average number of cycles each access was blocked
system.cpu.dcache.avg_blocked_cycles::no_targets          nan                       # average number of cycles each access was blocked
system.cpu.dcache.writebacks::.writebacks           57                       # number of writebacks
system.cpu.dcache.writebacks::total                57                       # number of writebacks
system.cpu.dcache.demand_mshr_hits::.switch_cpus.data          105                       # number of demand (read+write) MSHR hits
system.cpu.dcache.demand_mshr_hits::total          105                       # number of demand (read+write) MSHR hits
system.cpu.dcache.overall_mshr_hits::.switch_cpus.data          105                       # number of overall MSHR hits
system.cpu.dcache.overall_mshr_hits::total          105                       # number of overall MSHR hits
system.cpu.dcache.demand_mshr_misses::.switch_cpus.data          139                       # number of demand (read+write) MSHR misses
system.cpu.dcache.demand_mshr_misses::total          139                       # number of demand (read+write) MSHR misses
system.cpu.dcache.overall_mshr_misses::.switch_cpus.data          139                       # number of overall MSHR misses
system.cpu.dcache.overall_mshr_misses::total          139                       # number of overall MSHR misses
system.cpu.dcache.demand_mshr_miss_latency::.switch_cpus.data      3754400                       # number of demand (read+write) MSHR miss cycles
system.cpu.dcache.demand_mshr_miss_latency::total      3754400                       # number of demand (read+write) MSHR miss cycles
system.cpu.dcache.overall_mshr_miss_latency::.switch_cpus.data      3754400                       # number of overall MSHR miss cycles
system.cpu.dcache.overall_mshr_miss_latency::total      3754400                       # number of overall MSHR miss cycles
system.cpu.dcache.demand_mshr_miss_rate::.switch_cpus.data     0.000418                       # mshr miss rate for demand accesses
system.cpu.dcache.demand_mshr_miss_rate::total     0.000418                       # mshr miss rate for demand accesses
system.cpu.dcache.overall_mshr_miss_rate::.switch_cpus.data     0.000418                       # mshr miss rate for overall accesses
system.cpu.dcache.overall_mshr_miss_rate::total     0.000418                       # mshr miss rate for overall accesses
system.cpu.dcache.demand_avg_mshr_miss_latency::.switch_cpus.data 27010.071942                       # average overall mshr miss latency
system.cpu.dcache.demand_avg_mshr_miss_latency::total 27010.071942                       # average overall mshr miss latency
system.cpu.dcache.overall_avg_mshr_miss_latency::.switch_cpus.data 27010.071942                       # average overall mshr miss latency
system.cpu.dcache.overall_avg_mshr_miss_latency::total 27010.071942                       # average overall mshr miss latency
system.cpu.dcache.replacements                     57                       # number of replacements
system.cpu.dcache.ReadReq_hits::.cpu.data           13                       # number of ReadReq hits
system.cpu.dcache.ReadReq_hits::.switch_cpus.data       156079                       # number of ReadReq hits
system.cpu.dcache.ReadReq_hits::total          156092                       # number of ReadReq hits
system.cpu.dcache.ReadReq_misses::.cpu.data            4                       # number of ReadReq misses
system.cpu.dcache.ReadReq_misses::.switch_cpus.data          201                       # number of ReadReq misses
system.cpu.dcache.ReadReq_misses::total           205                       # number of ReadReq misses
system.cpu.dcache.ReadReq_miss_latency::.switch_cpus.data      8550400                       # number of ReadReq miss cycles
system.cpu.dcache.ReadReq_miss_latency::total      8550400                       # number of ReadReq miss cycles
system.cpu.dcache.ReadReq_accesses::.cpu.data           17                       # number of ReadReq accesses(hits+misses)
system.cpu.dcache.ReadReq_accesses::.switch_cpus.data       156280                       # number of ReadReq accesses(hits+misses)
system.cpu.dcache.ReadReq_accesses::total       156297                       # number of ReadReq accesses(hits+misses)
system.cpu.dcache.ReadReq_miss_rate::.cpu.data     0.235294                       # miss rate for ReadReq accesses
system.cpu.dcache.ReadReq_miss_rate::.switch_cpus.data     0.001286                       # miss rate for ReadReq accesses
system.cpu.dcache.ReadReq_miss_rate::total     0.001312                       # miss rate for ReadReq accesses
system.cpu.dcache.ReadReq_avg_miss_latency::.switch_cpus.data 42539.303483                       # average ReadReq miss latency
system.cpu.dcache.ReadReq_avg_miss_latency::total 41709.268293                       # average ReadReq miss latency
system.cpu.dcache.ReadReq_mshr_hits::.switch_cpus.data           84                       # number of ReadReq MSHR hits
system.cpu.dcache.ReadReq_mshr_hits::total           84                       # number of ReadReq MSHR hits
system.cpu.dcache.ReadReq_mshr_misses::.switch_cpus.data          117                       # number of ReadReq MSHR misses
system.cpu.dcache.ReadReq_mshr_misses::total          117                       # number of ReadReq MSHR misses
system.cpu.dcache.ReadReq_mshr_miss_latency::.switch_cpus.data      3183600                       # number of ReadReq MSHR miss cycles
system.cpu.dcache.ReadReq_mshr_miss_latency::total      3183600                       # number of ReadReq MSHR miss cycles
system.cpu.dcache.ReadReq_mshr_miss_rate::.switch_cpus.data     0.000749                       # mshr miss rate for ReadReq accesses
system.cpu.dcache.ReadReq_mshr_miss_rate::total     0.000749                       # mshr miss rate for ReadReq accesses
system.cpu.dcache.ReadReq_avg_mshr_miss_latency::.switch_cpus.data 27210.256410                       # average ReadReq mshr miss latency
system.cpu.dcache.ReadReq_avg_mshr_miss_latency::total 27210.256410                       # average ReadReq mshr miss latency
system.cpu.dcache.WriteReq_hits::.cpu.data            2                       # number of WriteReq hits
system.cpu.dcache.WriteReq_hits::.switch_cpus.data       175915                       # number of WriteReq hits
system.cpu.dcache.WriteReq_hits::total         175917                       # number of WriteReq hits
system.cpu.dcache.WriteReq_misses::.cpu.data            1                       # number of WriteReq misses
system.cpu.dcache.WriteReq_misses::.switch_cpus.data           43                       # number of WriteReq misses
system.cpu.dcache.WriteReq_misses::total           44                       # number of WriteReq misses
system.cpu.dcache.WriteReq_miss_latency::.switch_cpus.data      1103200                       # number of WriteReq miss cycles
system.cpu.dcache.WriteReq_miss_latency::total      1103200                       # number of WriteReq miss cycles
system.cpu.dcache.WriteReq_accesses::.cpu.data            3                       # number of WriteReq accesses(hits+misses)
system.cpu.dcache.WriteReq_accesses::.switch_cpus.data       175958                       # number of WriteReq accesses(hits+misses)
system.cpu.dcache.WriteReq_accesses::total       175961                       # number of WriteReq accesses(hits+misses)
system.cpu.dcache.WriteReq_miss_rate::.cpu.data     0.333333                       # miss rate for WriteReq accesses
system.cpu.dcache.WriteReq_miss_rate::.switch_cpus.data     0.000244                       # miss rate for WriteReq accesses
system.cpu.dcache.WriteReq_miss_rate::total     0.000250                       # miss rate for WriteReq accesses
system.cpu.dcache.WriteReq_avg_miss_latency::.switch_cpus.data 25655.813953                       # average WriteReq miss latency
system.cpu.dcache.WriteReq_avg_miss_latency::total 25072.727273                       # average WriteReq miss latency
system.cpu.dcache.WriteReq_mshr_hits::.switch_cpus.data           21                       # number of WriteReq MSHR hits
system.cpu.dcache.WriteReq_mshr_hits::total           21                       # number of WriteReq MSHR hits
system.cpu.dcache.WriteReq_mshr_misses::.switch_cpus.data           22                       # number of WriteReq MSHR misses
system.cpu.dcache.WriteReq_mshr_misses::total           22                       # number of WriteReq MSHR misses
system.cpu.dcache.WriteReq_mshr_miss_latency::.switch_cpus.data       570800                       # number of WriteReq MSHR miss cycles
system.cpu.dcache.WriteReq_mshr_miss_latency::total       570800                       # number of WriteReq MSHR miss cycles
system.cpu.dcache.WriteReq_mshr_miss_rate::.switch_cpus.data     0.000125                       # mshr miss rate for WriteReq accesses
system.cpu.dcache.WriteReq_mshr_miss_rate::total     0.000125                       # mshr miss rate for WriteReq accesses
system.cpu.dcache.WriteReq_avg_mshr_miss_latency::.switch_cpus.data 25945.454545                       # average WriteReq mshr miss latency
system.cpu.dcache.WriteReq_avg_mshr_miss_latency::total 25945.454545                       # average WriteReq mshr miss latency
system.cpu.dcache.power_state.pwrStateResidencyTicks::UNDEFINED 238124554000                       # Cumulative time (in ticks) in various power states
system.cpu.dcache.tags.tagsinuse            57.832314                       # Cycle average of tags in use
system.cpu.dcache.tags.total_refs                2946                       # Total number of references to valid blocks.
system.cpu.dcache.tags.sampled_refs                57                       # Sample count of references to valid blocks.
system.cpu.dcache.tags.avg_refs             51.684211                       # Average number of references to valid blocks.
system.cpu.dcache.tags.warmup_cycle      237907034000                       # Cycle when the warmup percentage was hit.
system.cpu.dcache.tags.occ_blocks::.cpu.data     4.999901                       # Average occupied blocks per requestor
system.cpu.dcache.tags.occ_blocks::.switch_cpus.data    52.832413                       # Average occupied blocks per requestor
system.cpu.dcache.tags.occ_percent::.cpu.data     0.039062                       # Average percentage of cache occupancy
system.cpu.dcache.tags.occ_percent::.switch_cpus.data     0.412753                       # Average percentage of cache occupancy
system.cpu.dcache.tags.occ_percent::total     0.451815                       # Average percentage of cache occupancy
system.cpu.dcache.tags.occ_task_id_blocks::1024           87                       # Occupied blocks per task id
system.cpu.dcache.tags.age_task_id_blocks_1024::0            5                       # Occupied blocks per task id
system.cpu.dcache.tags.age_task_id_blocks_1024::1           28                       # Occupied blocks per task id
system.cpu.dcache.tags.age_task_id_blocks_1024::2           54                       # Occupied blocks per task id
system.cpu.dcache.tags.occ_task_id_percent::1024     0.679688                       # Percentage of cache occupancy per task id
system.cpu.dcache.tags.tag_accesses            332402                       # Number of tag accesses
system.cpu.dcache.tags.data_accesses           332402                       # Number of data accesses
system.cpu.dcache.tags.power_state.pwrStateResidencyTicks::UNDEFINED 238124554000                       # Cumulative time (in ticks) in various power states
system.cpu.dtb.instHits                             0                       # ITB inst hits
system.cpu.dtb.instMisses                           0                       # ITB inst misses
system.cpu.dtb.readHits                             0                       # DTB read hits
system.cpu.dtb.readMisses                           0                       # DTB read misses
system.cpu.dtb.writeHits                            0                       # DTB write hits
system.cpu.dtb.writeMisses                          0                       # DTB write misses
system.cpu.dtb.inserts                              0                       # Number of times an entry is inserted into the TLB
system.cpu.dtb.flushTlb                             2                       # Number of times complete TLB was flushed
system.cpu.dtb.flushTlbMva                          0                       # Number of times TLB was flushed by MVA
system.cpu.dtb.flushTlbMvaAsid                      0                       # Number of times TLB was flushed by MVA & ASID
system.cpu.dtb.flushTlbAsid                         0                       # Number of times TLB was flushed by ASID
system.cpu.dtb.flushedEntries                       0                       # Number of entries that have been flushed from TLB
system.cpu.dtb.alignFaults                          0                       # Number of TLB faults due to alignment restrictions
system.cpu.dtb.prefetchFaults                       0                       # Number of TLB faults due to prefetch
system.cpu.dtb.domainFaults                         0                       # Number of TLB faults due to domain restrictions
system.cpu.dtb.permsFaults                          0                       # Number of TLB faults due to permissions restrictions
system.cpu.dtb.readAccesses                         0                       # DTB read accesses
system.cpu.dtb.writeAccesses                        0                       # DTB write accesses
system.cpu.dtb.instAccesses                         0                       # ITB inst accesses
system.cpu.dtb.hits                                 0                       # Total TLB (inst and data) hits
system.cpu.dtb.misses                               0                       # Total TLB (inst and data) misses
system.cpu.dtb.accesses                             0                       # Total TLB (inst and data) accesses
system.cpu.dtb.stage2_mmu.stage2_tlb.instHits            0                       # ITB inst hits
system.cpu.dtb.stage2_mmu.stage2_tlb.instMisses            0                       # ITB inst misses
system.cpu.dtb.stage2_mmu.stage2_tlb.readHits            0                       # DTB read hits
system.cpu.dtb.stage2_mmu.stage2_tlb.readMisses            0                       # DTB read misses
system.cpu.dtb.stage2_mmu.stage2_tlb.writeHits            0                       # DTB write hits
system.cpu.dtb.stage2_mmu.stage2_tlb.writeMisses            0                       # DTB write misses
system.cpu.dtb.stage2_mmu.stage2_tlb.inserts            0                       # Number of times an entry is inserted into the TLB
system.cpu.dtb.stage2_mmu.stage2_tlb.flushTlb            0                       # Number of times complete TLB was flushed
system.cpu.dtb.stage2_mmu.stage2_tlb.flushTlbMva            0                       # Number of times TLB was flushed by MVA
system.cpu.dtb.stage2_mmu.stage2_tlb.flushTlbMvaAsid            0                       # Number of times TLB was flushed by MVA & ASID
system.cpu.dtb.stage2_mmu.stage2_tlb.flushTlbAsid            0                       # Number of times TLB was flushed by ASID
system.cpu.dtb.stage2_mmu.stage2_tlb.flushedEntries            0                       # Number of entries that have been flushed from TLB
system.cpu.dtb.stage2_mmu.stage2_tlb.alignFaults            0                       # Number of TLB faults due to alignment restrictions
system.cpu.dtb.stage2_mmu.stage2_tlb.prefetchFaults            0                       # Number of TLB faults due to prefetch
system.cpu.dtb.stage2_mmu.stage2_tlb.domainFaults            0                       # Number of TLB faults due to domain restrictions
system.cpu.dtb.stage2_mmu.stage2_tlb.permsFaults            0                       # Number of TLB faults due to permissions restrictions
system.cpu.dtb.stage2_mmu.stage2_tlb.readAccesses            0                       # DTB read accesses
system.cpu.dtb.stage2_mmu.stage2_tlb.writeAccesses            0                       # DTB write accesses
system.cpu.dtb.stage2_mmu.stage2_tlb.instAccesses            0                       # ITB inst accesses
system.cpu.dtb.stage2_mmu.stage2_tlb.hits            0                       # Total TLB (inst and data) hits
system.cpu.dtb.stage2_mmu.stage2_tlb.misses            0                       # Total TLB (inst and data) misses
system.cpu.dtb.stage2_mmu.stage2_tlb.accesses            0                       # Total TLB (inst and data) accesses
system.cpu.dtb.stage2_mmu.stage2_tlb.walker.walks            0                       # Table walker walks requested
system.cpu.dtb.stage2_mmu.stage2_tlb.walker.requestOrigin_Requested::Data            0                       # Table walker requests started/completed, data/inst
system.cpu.dtb.stage2_mmu.stage2_tlb.walker.requestOrigin_Requested::Inst            0                       # Table walker requests started/completed, data/inst
system.cpu.dtb.stage2_mmu.stage2_tlb.walker.requestOrigin_Requested::total            0                       # Table walker requests started/completed, data/inst
system.cpu.dtb.stage2_mmu.stage2_tlb.walker.requestOrigin_Completed::Data            0                       # Table walker requests started/completed, data/inst
system.cpu.dtb.stage2_mmu.stage2_tlb.walker.requestOrigin_Completed::Inst            0                       # Table walker requests started/completed, data/inst
system.cpu.dtb.stage2_mmu.stage2_tlb.walker.requestOrigin_Completed::total            0                       # Table walker requests started/completed, data/inst
system.cpu.dtb.stage2_mmu.stage2_tlb.walker.requestOrigin::total            0                       # Table walker requests started/completed, data/inst
system.cpu.dtb.stage2_mmu.stage2_tlb.walker.power_state.pwrStateResidencyTicks::UNDEFINED 238124554000                       # Cumulative time (in ticks) in various power states
system.cpu.dtb.walker.walks                         0                       # Table walker walks requested
system.cpu.dtb.walker.requestOrigin_Requested::Data            0                       # Table walker requests started/completed, data/inst
system.cpu.dtb.walker.requestOrigin_Requested::Inst            0                       # Table walker requests started/completed, data/inst
system.cpu.dtb.walker.requestOrigin_Requested::total            0                       # Table walker requests started/completed, data/inst
system.cpu.dtb.walker.requestOrigin_Completed::Data            0                       # Table walker requests started/completed, data/inst
system.cpu.dtb.walker.requestOrigin_Completed::Inst            0                       # Table walker requests started/completed, data/inst
system.cpu.dtb.walker.requestOrigin_Completed::total            0                       # Table walker requests started/completed, data/inst
system.cpu.dtb.walker.requestOrigin::total            0                       # Table walker requests started/completed, data/inst
system.cpu.dtb.walker.power_state.pwrStateResidencyTicks::UNDEFINED 238124554000                       # Cumulative time (in ticks) in various power states
system.cpu.dtb_walker_cache.blocked_cycles::no_mshrs            0                       # number of cycles access was blocked
system.cpu.dtb_walker_cache.blocked_cycles::no_targets            0                       # number of cycles access was blocked
system.cpu.dtb_walker_cache.blocked::no_mshrs            0                       # number of cycles access was blocked
system.cpu.dtb_walker_cache.blocked::no_targets            0                       # number of cycles access was blocked
system.cpu.dtb_walker_cache.avg_blocked_cycles::no_mshrs          nan                       # average number of cycles each access was blocked
system.cpu.dtb_walker_cache.avg_blocked_cycles::no_targets          nan                       # average number of cycles each access was blocked
system.cpu.dtb_walker_cache.replacements            0                       # number of replacements
system.cpu.dtb_walker_cache.power_state.pwrStateResidencyTicks::UNDEFINED 238124554000                       # Cumulative time (in ticks) in various power states
system.cpu.dtb_walker_cache.tags.tagsinuse            0                       # Cycle average of tags in use
system.cpu.dtb_walker_cache.tags.total_refs            0                       # Total number of references to valid blocks.
system.cpu.dtb_walker_cache.tags.sampled_refs            0                       # Sample count of references to valid blocks.
system.cpu.dtb_walker_cache.tags.avg_refs          nan                       # Average number of references to valid blocks.
system.cpu.dtb_walker_cache.tags.warmup_cycle            0                       # Cycle when the warmup percentage was hit.
system.cpu.dtb_walker_cache.tags.tag_accesses            0                       # Number of tag accesses
system.cpu.dtb_walker_cache.tags.data_accesses            0                       # Number of data accesses
system.cpu.dtb_walker_cache.tags.power_state.pwrStateResidencyTicks::UNDEFINED 238124554000                       # Cumulative time (in ticks) in various power states
system.cpu.icache.demand_hits::.cpu.inst           19                       # number of demand (read+write) hits
system.cpu.icache.demand_hits::.switch_cpus.inst       185562                       # number of demand (read+write) hits
system.cpu.icache.demand_hits::total           185581                       # number of demand (read+write) hits
system.cpu.icache.overall_hits::.cpu.inst           19                       # number of overall hits
system.cpu.icache.overall_hits::.switch_cpus.inst       185562                       # number of overall hits
system.cpu.icache.overall_hits::total          185581                       # number of overall hits
system.cpu.icache.demand_misses::.cpu.inst            4                       # number of demand (read+write) misses
system.cpu.icache.demand_misses::.switch_cpus.inst           69                       # number of demand (read+write) misses
system.cpu.icache.demand_misses::total             73                       # number of demand (read+write) misses
system.cpu.icache.overall_misses::.cpu.inst            4                       # number of overall misses
system.cpu.icache.overall_misses::.switch_cpus.inst           69                       # number of overall misses
system.cpu.icache.overall_misses::total            73                       # number of overall misses
system.cpu.icache.demand_miss_latency::.switch_cpus.inst      3965200                       # number of demand (read+write) miss cycles
system.cpu.icache.demand_miss_latency::total      3965200                       # number of demand (read+write) miss cycles
system.cpu.icache.overall_miss_latency::.switch_cpus.inst      3965200                       # number of overall miss cycles
system.cpu.icache.overall_miss_latency::total      3965200                       # number of overall miss cycles
system.cpu.icache.demand_accesses::.cpu.inst           23                       # number of demand (read+write) accesses
system.cpu.icache.demand_accesses::.switch_cpus.inst       185631                       # number of demand (read+write) accesses
system.cpu.icache.demand_accesses::total       185654                       # number of demand (read+write) accesses
system.cpu.icache.overall_accesses::.cpu.inst           23                       # number of overall (read+write) accesses
system.cpu.icache.overall_accesses::.switch_cpus.inst       185631                       # number of overall (read+write) accesses
system.cpu.icache.overall_accesses::total       185654                       # number of overall (read+write) accesses
system.cpu.icache.demand_miss_rate::.cpu.inst     0.173913                       # miss rate for demand accesses
system.cpu.icache.demand_miss_rate::.switch_cpus.inst     0.000372                       # miss rate for demand accesses
system.cpu.icache.demand_miss_rate::total     0.000393                       # miss rate for demand accesses
system.cpu.icache.overall_miss_rate::.cpu.inst     0.173913                       # miss rate for overall accesses
system.cpu.icache.overall_miss_rate::.switch_cpus.inst     0.000372                       # miss rate for overall accesses
system.cpu.icache.overall_miss_rate::total     0.000393                       # miss rate for overall accesses
system.cpu.icache.demand_avg_miss_latency::.switch_cpus.inst 57466.666667                       # average overall miss latency
system.cpu.icache.demand_avg_miss_latency::total 54317.808219                       # average overall miss latency
system.cpu.icache.overall_avg_miss_latency::.switch_cpus.inst 57466.666667                       # average overall miss latency
system.cpu.icache.overall_avg_miss_latency::total 54317.808219                       # average overall miss latency
system.cpu.icache.blocked_cycles::no_mshrs         1790                       # number of cycles access was blocked
system.cpu.icache.blocked_cycles::no_targets            0                       # number of cycles access was blocked
system.cpu.icache.blocked::no_mshrs                17                       # number of cycles access was blocked
system.cpu.icache.blocked::no_targets               0                       # number of cycles access was blocked
system.cpu.icache.avg_blocked_cycles::no_mshrs   105.294118                       # average number of cycles each access was blocked
system.cpu.icache.avg_blocked_cycles::no_targets          nan                       # average number of cycles each access was blocked
system.cpu.icache.demand_mshr_hits::.switch_cpus.inst           26                       # number of demand (read+write) MSHR hits
system.cpu.icache.demand_mshr_hits::total           26                       # number of demand (read+write) MSHR hits
system.cpu.icache.overall_mshr_hits::.switch_cpus.inst           26                       # number of overall MSHR hits
system.cpu.icache.overall_mshr_hits::total           26                       # number of overall MSHR hits
system.cpu.icache.demand_mshr_misses::.switch_cpus.inst           43                       # number of demand (read+write) MSHR misses
system.cpu.icache.demand_mshr_misses::total           43                       # number of demand (read+write) MSHR misses
system.cpu.icache.overall_mshr_misses::.switch_cpus.inst           43                       # number of overall MSHR misses
system.cpu.icache.overall_mshr_misses::total           43                       # number of overall MSHR misses
system.cpu.icache.demand_mshr_miss_latency::.switch_cpus.inst      2853200                       # number of demand (read+write) MSHR miss cycles
system.cpu.icache.demand_mshr_miss_latency::total      2853200                       # number of demand (read+write) MSHR miss cycles
system.cpu.icache.overall_mshr_miss_latency::.switch_cpus.inst      2853200                       # number of overall MSHR miss cycles
system.cpu.icache.overall_mshr_miss_latency::total      2853200                       # number of overall MSHR miss cycles
system.cpu.icache.demand_mshr_miss_rate::.switch_cpus.inst     0.000232                       # mshr miss rate for demand accesses
system.cpu.icache.demand_mshr_miss_rate::total     0.000232                       # mshr miss rate for demand accesses
system.cpu.icache.overall_mshr_miss_rate::.switch_cpus.inst     0.000232                       # mshr miss rate for overall accesses
system.cpu.icache.overall_mshr_miss_rate::total     0.000232                       # mshr miss rate for overall accesses
system.cpu.icache.demand_avg_mshr_miss_latency::.switch_cpus.inst 66353.488372                       # average overall mshr miss latency
system.cpu.icache.demand_avg_mshr_miss_latency::total 66353.488372                       # average overall mshr miss latency
system.cpu.icache.overall_avg_mshr_miss_latency::.switch_cpus.inst 66353.488372                       # average overall mshr miss latency
system.cpu.icache.overall_avg_mshr_miss_latency::total 66353.488372                       # average overall mshr miss latency
system.cpu.icache.replacements                      0                       # number of replacements
system.cpu.icache.ReadReq_hits::.cpu.inst           19                       # number of ReadReq hits
system.cpu.icache.ReadReq_hits::.switch_cpus.inst       185562                       # number of ReadReq hits
system.cpu.icache.ReadReq_hits::total          185581                       # number of ReadReq hits
system.cpu.icache.ReadReq_misses::.cpu.inst            4                       # number of ReadReq misses
system.cpu.icache.ReadReq_misses::.switch_cpus.inst           69                       # number of ReadReq misses
system.cpu.icache.ReadReq_misses::total            73                       # number of ReadReq misses
system.cpu.icache.ReadReq_miss_latency::.switch_cpus.inst      3965200                       # number of ReadReq miss cycles
system.cpu.icache.ReadReq_miss_latency::total      3965200                       # number of ReadReq miss cycles
system.cpu.icache.ReadReq_accesses::.cpu.inst           23                       # number of ReadReq accesses(hits+misses)
system.cpu.icache.ReadReq_accesses::.switch_cpus.inst       185631                       # number of ReadReq accesses(hits+misses)
system.cpu.icache.ReadReq_accesses::total       185654                       # number of ReadReq accesses(hits+misses)
system.cpu.icache.ReadReq_miss_rate::.cpu.inst     0.173913                       # miss rate for ReadReq accesses
system.cpu.icache.ReadReq_miss_rate::.switch_cpus.inst     0.000372                       # miss rate for ReadReq accesses
system.cpu.icache.ReadReq_miss_rate::total     0.000393                       # miss rate for ReadReq accesses
system.cpu.icache.ReadReq_avg_miss_latency::.switch_cpus.inst 57466.666667                       # average ReadReq miss latency
system.cpu.icache.ReadReq_avg_miss_latency::total 54317.808219                       # average ReadReq miss latency
system.cpu.icache.ReadReq_mshr_hits::.switch_cpus.inst           26                       # number of ReadReq MSHR hits
system.cpu.icache.ReadReq_mshr_hits::total           26                       # number of ReadReq MSHR hits
system.cpu.icache.ReadReq_mshr_misses::.switch_cpus.inst           43                       # number of ReadReq MSHR misses
system.cpu.icache.ReadReq_mshr_misses::total           43                       # number of ReadReq MSHR misses
system.cpu.icache.ReadReq_mshr_miss_latency::.switch_cpus.inst      2853200                       # number of ReadReq MSHR miss cycles
system.cpu.icache.ReadReq_mshr_miss_latency::total      2853200                       # number of ReadReq MSHR miss cycles
system.cpu.icache.ReadReq_mshr_miss_rate::.switch_cpus.inst     0.000232                       # mshr miss rate for ReadReq accesses
system.cpu.icache.ReadReq_mshr_miss_rate::total     0.000232                       # mshr miss rate for ReadReq accesses
system.cpu.icache.ReadReq_avg_mshr_miss_latency::.switch_cpus.inst 66353.488372                       # average ReadReq mshr miss latency
system.cpu.icache.ReadReq_avg_mshr_miss_latency::total 66353.488372                       # average ReadReq mshr miss latency
system.cpu.icache.power_state.pwrStateResidencyTicks::UNDEFINED 238124554000                       # Cumulative time (in ticks) in various power states
system.cpu.icache.tags.tagsinuse            46.717799                       # Cycle average of tags in use
system.cpu.icache.tags.total_refs                   0                       # Total number of references to valid blocks.
system.cpu.icache.tags.sampled_refs                 0                       # Sample count of references to valid blocks.
system.cpu.icache.tags.avg_refs                   nan                       # Average number of references to valid blocks.
system.cpu.icache.tags.warmup_cycle      237907034000                       # Cycle when the warmup percentage was hit.
system.cpu.icache.tags.occ_blocks::.cpu.inst     3.999921                       # Average occupied blocks per requestor
system.cpu.icache.tags.occ_blocks::.switch_cpus.inst    42.717878                       # Average occupied blocks per requestor
system.cpu.icache.tags.occ_percent::.cpu.inst     0.015625                       # Average percentage of cache occupancy
system.cpu.icache.tags.occ_percent::.switch_cpus.inst     0.166867                       # Average percentage of cache occupancy
system.cpu.icache.tags.occ_percent::total     0.182491                       # Average percentage of cache occupancy
system.cpu.icache.tags.occ_task_id_blocks::1024           47                       # Occupied blocks per task id
system.cpu.icache.tags.age_task_id_blocks_1024::2           47                       # Occupied blocks per task id
system.cpu.icache.tags.occ_task_id_percent::1024     0.183594                       # Percentage of cache occupancy per task id
system.cpu.icache.tags.tag_accesses            185701                       # Number of tag accesses
system.cpu.icache.tags.data_accesses           185701                       # Number of data accesses
system.cpu.icache.tags.power_state.pwrStateResidencyTicks::UNDEFINED 238124554000                       # Cumulative time (in ticks) in various power states
system.cpu.itb.instHits                             0                       # ITB inst hits
system.cpu.itb.instMisses                           0                       # ITB inst misses
system.cpu.itb.readHits                             0                       # DTB read hits
system.cpu.itb.readMisses                           0                       # DTB read misses
system.cpu.itb.writeHits                            0                       # DTB write hits
system.cpu.itb.writeMisses                          0                       # DTB write misses
system.cpu.itb.inserts                              0                       # Number of times an entry is inserted into the TLB
system.cpu.itb.flushTlb                             2                       # Number of times complete TLB was flushed
system.cpu.itb.flushTlbMva                          0                       # Number of times TLB was flushed by MVA
system.cpu.itb.flushTlbMvaAsid                      0                       # Number of times TLB was flushed by MVA & ASID
system.cpu.itb.flushTlbAsid                         0                       # Number of times TLB was flushed by ASID
system.cpu.itb.flushedEntries                       0                       # Number of entries that have been flushed from TLB
system.cpu.itb.alignFaults                          0                       # Number of TLB faults due to alignment restrictions
system.cpu.itb.prefetchFaults                       0                       # Number of TLB faults due to prefetch
system.cpu.itb.domainFaults                         0                       # Number of TLB faults due to domain restrictions
system.cpu.itb.permsFaults                          0                       # Number of TLB faults due to permissions restrictions
system.cpu.itb.readAccesses                         0                       # DTB read accesses
system.cpu.itb.writeAccesses                        0                       # DTB write accesses
system.cpu.itb.instAccesses                         0                       # ITB inst accesses
system.cpu.itb.hits                                 0                       # Total TLB (inst and data) hits
system.cpu.itb.misses                               0                       # Total TLB (inst and data) misses
system.cpu.itb.accesses                             0                       # Total TLB (inst and data) accesses
system.cpu.itb.stage2_mmu.stage2_tlb.instHits            0                       # ITB inst hits
system.cpu.itb.stage2_mmu.stage2_tlb.instMisses            0                       # ITB inst misses
system.cpu.itb.stage2_mmu.stage2_tlb.readHits            0                       # DTB read hits
system.cpu.itb.stage2_mmu.stage2_tlb.readMisses            0                       # DTB read misses
system.cpu.itb.stage2_mmu.stage2_tlb.writeHits            0                       # DTB write hits
system.cpu.itb.stage2_mmu.stage2_tlb.writeMisses            0                       # DTB write misses
system.cpu.itb.stage2_mmu.stage2_tlb.inserts            0                       # Number of times an entry is inserted into the TLB
system.cpu.itb.stage2_mmu.stage2_tlb.flushTlb            0                       # Number of times complete TLB was flushed
system.cpu.itb.stage2_mmu.stage2_tlb.flushTlbMva            0                       # Number of times TLB was flushed by MVA
system.cpu.itb.stage2_mmu.stage2_tlb.flushTlbMvaAsid            0                       # Number of times TLB was flushed by MVA & ASID
system.cpu.itb.stage2_mmu.stage2_tlb.flushTlbAsid            0                       # Number of times TLB was flushed by ASID
system.cpu.itb.stage2_mmu.stage2_tlb.flushedEntries            0                       # Number of entries that have been flushed from TLB
system.cpu.itb.stage2_mmu.stage2_tlb.alignFaults            0                       # Number of TLB faults due to alignment restrictions
system.cpu.itb.stage2_mmu.stage2_tlb.prefetchFaults            0                       # Number of TLB faults due to prefetch
system.cpu.itb.stage2_mmu.stage2_tlb.domainFaults            0                       # Number of TLB faults due to domain restrictions
system.cpu.itb.stage2_mmu.stage2_tlb.permsFaults            0                       # Number of TLB faults due to permissions restrictions
system.cpu.itb.stage2_mmu.stage2_tlb.readAccesses            0                       # DTB read accesses
system.cpu.itb.stage2_mmu.stage2_tlb.writeAccesses            0                       # DTB write accesses
system.cpu.itb.stage2_mmu.stage2_tlb.instAccesses            0                       # ITB inst accesses
system.cpu.itb.stage2_mmu.stage2_tlb.hits            0                       # Total TLB (inst and data) hits
system.cpu.itb.stage2_mmu.stage2_tlb.misses            0                       # Total TLB (inst and data) misses
system.cpu.itb.stage2_mmu.stage2_tlb.accesses            0                       # Total TLB (inst and data) accesses
system.cpu.itb.stage2_mmu.stage2_tlb.walker.walks            0                       # Table walker walks requested
system.cpu.itb.stage2_mmu.stage2_tlb.walker.requestOrigin_Requested::Data            0                       # Table walker requests started/completed, data/inst
system.cpu.itb.stage2_mmu.stage2_tlb.walker.requestOrigin_Requested::Inst            0                       # Table walker requests started/completed, data/inst
system.cpu.itb.stage2_mmu.stage2_tlb.walker.requestOrigin_Requested::total            0                       # Table walker requests started/completed, data/inst
system.cpu.itb.stage2_mmu.stage2_tlb.walker.requestOrigin_Completed::Data            0                       # Table walker requests started/completed, data/inst
system.cpu.itb.stage2_mmu.stage2_tlb.walker.requestOrigin_Completed::Inst            0                       # Table walker requests started/completed, data/inst
system.cpu.itb.stage2_mmu.stage2_tlb.walker.requestOrigin_Completed::total            0                       # Table walker requests started/completed, data/inst
system.cpu.itb.stage2_mmu.stage2_tlb.walker.requestOrigin::total            0                       # Table walker requests started/completed, data/inst
system.cpu.itb.stage2_mmu.stage2_tlb.walker.power_state.pwrStateResidencyTicks::UNDEFINED 238124554000                       # Cumulative time (in ticks) in various power states
system.cpu.itb.walker.walks                         0                       # Table walker walks requested
system.cpu.itb.walker.requestOrigin_Requested::Data            0                       # Table walker requests started/completed, data/inst
system.cpu.itb.walker.requestOrigin_Requested::Inst            0                       # Table walker requests started/completed, data/inst
system.cpu.itb.walker.requestOrigin_Requested::total            0                       # Table walker requests started/completed, data/inst
system.cpu.itb.walker.requestOrigin_Completed::Data            0                       # Table walker requests started/completed, data/inst
system.cpu.itb.walker.requestOrigin_Completed::Inst            0                       # Table walker requests started/completed, data/inst
system.cpu.itb.walker.requestOrigin_Completed::total            0                       # Table walker requests started/completed, data/inst
system.cpu.itb.walker.requestOrigin::total            0                       # Table walker requests started/completed, data/inst
[...]
system.switch_cpus.fetch.branches             1496290                       # Number of branches that fetch encountered
system.switch_cpus.fetch.predictedBranches      1265554                       # Number of branches that fetch has predicted taken
system.switch_cpus.fetch.cycles               5825123                       # Number of cycles fetch has run and was not squashing or blocked
system.switch_cpus.fetch.squashCycles            7024                       # Number of cycles fetch has spent squashing
system.switch_cpus.fetch.miscStallCycles          370                       # Number of cycles fetch has spent waiting on interrupts,or bad addresses, or out of MSHRs
system.switch_cpus.fetch.pendingTrapStallCycles           57                       # Number of stall cycles due to pending traps
system.switch_cpus.fetch.icacheWaitRetryStallCycles           48                       # Number of stall cycles due to full MSHR
system.switch_cpus.fetch.cacheLines           1830651                       # Number of cache lines fetched
system.switch_cpus.fetch.icacheSquashes            66                       # Number of outstanding Icache misses that were squashed
system.switch_cpus.fetch.nisnDist::samples      5834693                       # Number of instructions fetched each cycle (Total)
system.switch_cpus.fetch.nisnDist::mean      1.811310                       # Number of instructions fetched each cycle (Total)
system.switch_cpus.fetch.nisnDist::stdev     2.702584                       # Number of instructions fetched each cycle (Total)
system.switch_cpus.fetch.nisnDist::underflows            0      0.00%      0.00% # Number of instructions fetched each cycle (Total)
system.switch_cpus.fetch.nisnDist::0          3521675     60.36%     60.36% # Number of instructions fetched each cycle (Total)
system.switch_cpus.fetch.nisnDist::1           437433      7.50%     67.85% # Number of instructions fetched each cycle (Total)
system.switch_cpus.fetch.nisnDist::2           155422      2.66%     70.52% # Number of instructions fetched each cycle (Total)
system.switch_cpus.fetch.nisnDist::3           213711      3.66%     74.18% # Number of instructions fetched each cycle (Total)
system.switch_cpus.fetch.nisnDist::4           234312      4.02%     78.20% # Number of instructions fetched each cycle (Total)
system.switch_cpus.fetch.nisnDist::5           279508      4.79%     82.99% # Number of instructions fetched each cycle (Total)
system.switch_cpus.fetch.nisnDist::6           481835      8.26%     91.25% # Number of instructions fetched each cycle (Total)
system.switch_cpus.fetch.nisnDist::7           133146      2.28%     93.53% # Number of instructions fetched each cycle (Total)
system.switch_cpus.fetch.nisnDist::8           377651      6.47%    100.00% # Number of instructions fetched each cycle (Total)
system.switch_cpus.fetch.nisnDist::overflows            0      0.00%    100.00% # Number of instructions fetched each cycle (Total)
system.switch_cpus.fetch.nisnDist::min_value            0                       # Number of instructions fetched each cycle (Total)
system.switch_cpus.fetch.nisnDist::max_value            8                       # Number of instructions fetched each cycle (Total)
system.switch_cpus.fetch.nisnDist::total      5834693                       # Number of instructions fetched each cycle (Total)
system.switch_cpus.fetch.branchRate          0.256283                       # Number of branch fetches per cycle
system.switch_cpus.fetch.rate                1.778174                       # Number of inst fetches per cycle
system.switch_cpus.itb.instHits                     0                       # ITB inst hits
system.switch_cpus.itb.instMisses                   0                       # ITB inst misses
system.switch_cpus.itb.readHits                     0                       # DTB read hits
system.switch_cpus.itb.readMisses                   0                       # DTB read misses
system.switch_cpus.itb.writeHits                    0                       # DTB write hits
system.switch_cpus.itb.writeMisses                  0                       # DTB write misses
system.switch_cpus.itb.inserts                      0                       # Number of times an entry is inserted into the TLB
system.switch_cpus.itb.flushTlb                     0                       # Number of times complete TLB was flushed
system.switch_cpus.itb.flushTlbMva                  0                       # Number of times TLB was flushed by MVA
system.switch_cpus.itb.flushTlbMvaAsid              0                       # Number of times TLB was flushed by MVA & ASID
system.switch_cpus.itb.flushTlbAsid                 0                       # Number of times TLB was flushed by ASID
system.switch_cpus.itb.flushedEntries               0                       # Number of entries that have been flushed from TLB
system.switch_cpus.itb.alignFaults                  0                       # Number of TLB faults due to alignment restrictions
system.switch_cpus.itb.prefetchFaults               0                       # Number of TLB faults due to prefetch
system.switch_cpus.itb.domainFaults                 0                       # Number of TLB faults due to domain restrictions
system.switch_cpus.itb.permsFaults                  0                       # Number of TLB faults due to permissions restrictions
system.switch_cpus.itb.readAccesses                 0                       # DTB read accesses
system.switch_cpus.itb.writeAccesses                0                       # DTB write accesses
system.switch_cpus.itb.instAccesses                 0                       # ITB inst accesses
system.switch_cpus.itb.hits                         0                       # Total TLB (inst and data) hits
system.switch_cpus.itb.misses                       0                       # Total TLB (inst and data) misses
system.switch_cpus.itb.accesses                     0                       # Total TLB (inst and data) accesses
system.switch_cpus.itb.stage2_mmu.stage2_tlb.instHits            0                       # ITB inst hits
system.switch_cpus.itb.stage2_mmu.stage2_tlb.instMisses            0                       # ITB inst misses
system.switch_cpus.itb.stage2_mmu.stage2_tlb.readHits            0                       # DTB read hits
system.switch_cpus.itb.stage2_mmu.stage2_tlb.readMisses            0                       # DTB read misses
system.switch_cpus.itb.stage2_mmu.stage2_tlb.writeHits            0                       # DTB write hits
system.switch_cpus.itb.stage2_mmu.stage2_tlb.writeMisses            0                       # DTB write misses
system.switch_cpus.itb.stage2_mmu.stage2_tlb.inserts            0                       # Number of times an entry is inserted into the TLB
system.switch_cpus.itb.stage2_mmu.stage2_tlb.flushTlb            0                       # Number of times complete TLB was flushed
system.switch_cpus.itb.stage2_mmu.stage2_tlb.flushTlbMva            0                       # Number of times TLB was flushed by MVA
system.switch_cpus.itb.stage2_mmu.stage2_tlb.flushTlbMvaAsid            0                       # Number of times TLB was flushed by MVA & ASID
system.switch_cpus.itb.stage2_mmu.stage2_tlb.flushTlbAsid            0                       # Number of times TLB was flushed by ASID
system.switch_cpus.itb.stage2_mmu.stage2_tlb.flushedEntries            0                       # Number of entries that have been flushed from TLB
system.switch_cpus.itb.stage2_mmu.stage2_tlb.alignFaults            0                       # Number of TLB faults due to alignment restrictions
system.switch_cpus.itb.stage2_mmu.stage2_tlb.prefetchFaults            0                       # Number of TLB faults due to prefetch
system.switch_cpus.itb.stage2_mmu.stage2_tlb.domainFaults            0                       # Number of TLB faults due to domain restrictions
system.switch_cpus.itb.stage2_mmu.stage2_tlb.permsFaults            0                       # Number of TLB faults due to permissions restrictions
system.switch_cpus.itb.stage2_mmu.stage2_tlb.readAccesses            0                       # DTB read accesses
system.switch_cpus.itb.stage2_mmu.stage2_tlb.writeAccesses            0                       # DTB write accesses
system.switch_cpus.itb.stage2_mmu.stage2_tlb.instAccesses            0                       # ITB inst accesses
system.switch_cpus.itb.stage2_mmu.stage2_tlb.hits            0                       # Total TLB (inst and data) hits
system.switch_cpus.itb.stage2_mmu.stage2_tlb.misses            0                       # Total TLB (inst and data) misses
system.switch_cpus.itb.stage2_mmu.stage2_tlb.accesses            0                       # Total TLB (inst and data) accesses
system.switch_cpus.itb.stage2_mmu.stage2_tlb.walker.walks            0                       # Table walker walks requested
system.switch_cpus.itb.stage2_mmu.stage2_tlb.walker.requestOrigin_Requested::Data            0                       # Table walker requests started/completed, data/inst
system.switch_cpus.itb.stage2_mmu.stage2_tlb.walker.requestOrigin_Requested::Inst            0                       # Table walker requests started/completed, data/inst
system.switch_cpus.itb.stage2_mmu.stage2_tlb.walker.requestOrigin_Requested::total            0                       # Table walker requests started/completed, data/inst
system.switch_cpus.itb.stage2_mmu.stage2_tlb.walker.requestOrigin_Completed::Data            0                       # Table walker requests started/completed, data/inst
system.switch_cpus.itb.stage2_mmu.stage2_tlb.walker.requestOrigin_Completed::Inst            0                       # Table walker requests started/completed, data/inst
system.switch_cpus.itb.stage2_mmu.stage2_tlb.walker.requestOrigin_Completed::total            0                       # Table walker requests started/completed, data/inst
system.switch_cpus.itb.stage2_mmu.stage2_tlb.walker.requestOrigin::total            0                       # Table walker requests started/completed, data/inst
system.switch_cpus.itb.stage2_mmu.stage2_tlb.walker.power_state.pwrStateResidencyTicks::UNDEFINED   2335369600                       # Cumulative time (in ticks) in various power states
system.switch_cpus.itb.walker.walks                 0                       # Table walker walks requested
system.switch_cpus.itb.walker.requestOrigin_Requested::Data            0                       # Table walker requests started/completed, data/inst
system.switch_cpus.itb.walker.requestOrigin_Requested::Inst            0                       # Table walker requests started/completed, data/inst
system.switch_cpus.itb.walker.requestOrigin_Requested::total            0                       # Table walker requests started/completed, data/inst
system.switch_cpus.itb.walker.requestOrigin_Completed::Data            0                       # Table walker requests started/completed, data/inst
system.switch_cpus.itb.walker.requestOrigin_Completed::Inst            0                       # Table walker requests started/completed, data/inst
system.switch_cpus.itb.walker.requestOrigin_Completed::total            0                       # Table walker requests started/completed, data/inst
system.switch_cpus.itb.walker.requestOrigin::total            0                       # Table walker requests started/completed, data/inst
system.switch_cpus.itb.walker.power_state.pwrStateResidencyTicks::UNDEFINED   2335369600                       # Cumulative time (in ticks) in various power states
system.switch_cpus.lsq0.forwLoads             1768491                       # Number of loads that had data forwarded from stores
system.switch_cpus.lsq0.squashedLoads           73581                       # Number of loads squashed
system.switch_cpus.lsq0.ignoredResponses           10                       # Number of memory responses ignored because the instruction is squashed
system.switch_cpus.lsq0.memOrderViolation          328                       # Number of memory ordering violations
system.switch_cpus.lsq0.squashedStores          57266                       # Number of stores squashed
system.switch_cpus.lsq0.rescheduledLoads        24779                       # Number of loads that were rescheduled
system.switch_cpus.lsq0.blockedByCache            430                       # Number of times an access to memory failed due to the cache being blocked
system.switch_cpus.power_state.pwrStateResidencyTicks::OFF   2335369600                       # Cumulative time (in ticks) in various power states
system.switch_cpus.rename.squashCycles           3469                       # Number of cycles rename is squashing
system.switch_cpus.rename.idleCycles           863858                       # Number of cycles rename is idle
system.switch_cpus.rename.blockCycles         2651718                       # Number of cycles rename is blocking
system.switch_cpus.rename.serializeStallCycles          991                       # count of cycles rename stalledfor serializing inst
system.switch_cpus.rename.runCycles            958238                       # Number of cycles rename is running
system.switch_cpus.rename.unblockCycles       1356419                       # Number of cycles rename is unblocking
system.switch_cpus.rename.renamedInsts       10414682                       # Number of instructions processed by rename
system.switch_cpus.rename.squashedInsts          5417                       # Number of squashed instructions processed by rename
system.switch_cpus.rename.ROBFullEvents             3                       # Number of times rename has blocked due to ROB full
system.switch_cpus.rename.IQFullEvents            596                       # Number of times rename has blocked due to IQ full
system.switch_cpus.rename.fullRegistersEvents      1211642                       # Number of times there has been no free registers
system.switch_cpus.rename.renamedOperands     10339463                       # Number of destination operands rename has renamed
system.switch_cpus.rename.lookups            13663659                       # Number of register rename lookups that rename has made
system.switch_cpus.rename.intLookups         11549218                       # Number of integer rename lookups
system.switch_cpus.rename.vecLookups               48                       # Number of vector rename lookups
system.switch_cpus.rename.committedMaps      10087963                       # Number of HB maps that are committed
system.switch_cpus.rename.undoneMaps           251500                       # Number of HB maps that are undone due to squashing
system.switch_cpus.rename.serializing              27                       # count of serializing insts renamed
system.switch_cpus.rename.tempSerializing            2                       # count of temporary serializing insts renamed
system.switch_cpus.rename.skidInsts           3898344                       # count of insts added to the skid buffer
system.switch_cpus.rob.reads                 13923218                       # The number of ROB reads
system.switch_cpus.rob.writes                20867301                       # The number of ROB writes
system.switch_cpus.thread_0.numInsts          9999998                       # Number of Instructions committed
system.switch_cpus.thread_0.numOps           10128148                       # Number of Ops committed
system.switch_cpus.thread_0.numMemRefs              0                       # Number of Memory References
system.tol2bus.trans_dist::ReadResp            139917                       # Transaction distribution
system.tol2bus.trans_dist::WritebackDirty       122682                       # Transaction distribution
system.tol2bus.trans_dist::WritebackClean        24046                       # Transaction distribution
system.tol2bus.trans_dist::CleanEvict           18830                       # Transaction distribution
system.tol2bus.trans_dist::HardPFReq            24963                       # Transaction distribution
system.tol2bus.trans_dist::ReadExReq             3758                       # Transaction distribution
system.tol2bus.trans_dist::ReadExResp            3758                       # Transaction distribution
system.tol2bus.trans_dist::ReadCleanReq            52                       # Transaction distribution
system.tol2bus.trans_dist::ReadSharedReq       139866                       # Transaction distribution
system.tol2bus.pkt_count_system.cpu.icache.mem_side_port::system.l2.cpu_side_port          109                       # Packet count per connected requestor and responder (bytes)
system.tol2bus.pkt_count_system.cpu.dcache.mem_side_port::system.l2.cpu_side_port       430829                       # Packet count per connected requestor and responder (bytes)
system.tol2bus.pkt_count::total                430938                       # Packet count per connected requestor and responder (bytes)
system.tol2bus.pkt_size_system.cpu.icache.mem_side_port::system.l2.cpu_side_port         7296                       # Cumulative packet size per connected requestor and responder (bytes)
system.tol2bus.pkt_size_system.cpu.dcache.mem_side_port::system.l2.cpu_side_port     36762240                       # Cumulative packet size per connected requestor and responder (bytes)
system.tol2bus.pkt_size::total               36769536                       # Cumulative packet size per connected requestor and responder (bytes)
system.tol2bus.snoops                           46934                       # Total snoops (count)
system.tol2bus.snoopTraffic                    402048                       # Total snoop traffic (bytes)
system.tol2bus.snoop_fanout::samples           190610                       # Request fanout histogram
system.tol2bus.snoop_fanout::mean            0.000199                       # Request fanout histogram
system.tol2bus.snoop_fanout::stdev           0.014118                       # Request fanout histogram
system.tol2bus.snoop_fanout::underflows             0      0.00%      0.00% # Request fanout histogram
system.tol2bus.snoop_fanout::0                 190572     99.98%     99.98% # Request fanout histogram
system.tol2bus.snoop_fanout::1                     38      0.02%    100.00% # Request fanout histogram
system.tol2bus.snoop_fanout::2                      0      0.00%    100.00% # Request fanout histogram
system.tol2bus.snoop_fanout::3                      0      0.00%    100.00% # Request fanout histogram
system.tol2bus.snoop_fanout::4                      0      0.00%    100.00% # Request fanout histogram
system.tol2bus.snoop_fanout::overflows              0      0.00%    100.00% # Request fanout histogram
system.tol2bus.snoop_fanout::min_value              0                       # Request fanout histogram
system.tol2bus.snoop_fanout::max_value              1                       # Request fanout histogram
system.tol2bus.snoop_fanout::total             190610                       # Request fanout histogram
system.tol2bus.power_state.pwrStateResidencyTicks::UNDEFINED   2335369600                       # Cumulative time (in ticks) in various power states
system.tol2bus.reqLayer0.occupancy          344644400                       # Layer occupancy (ticks)
system.tol2bus.reqLayer0.utilization             14.8                       # Layer utilization (%)
system.tol2bus.respLayer0.occupancy            104000                       # Layer occupancy (ticks)
system.tol2bus.respLayer0.utilization             0.0                       # Layer utilization (%)
system.tol2bus.respLayer1.occupancy         287246000                       # Layer occupancy (ticks)
system.tol2bus.respLayer1.utilization            12.3                       # Layer utilization (%)
system.voltage_domain.voltage                       1                       # Voltage in Volts

---------- End Simulation Statistics   ----------
