
---------- Begin Simulation Statistics ----------
final_tick                               5274453870800                       # Number of ticks from beginning of simulation (restored from checkpoints and never reset)
host_inst_rate                                 170915                       # Simulator instruction rate (inst/s)
host_mem_usage                               17025232                       # Number of bytes of host memory used
host_op_rate                                   174645                       # Simulator op (including micro ops) rate (op/s)
host_seconds                                     5.85                       # Real time elapsed on the host
host_tick_rate                              201854133                       # Simulator tick rate (ticks/s)
sim_freq                                 1000000000000                       # Frequency of simulated ticks
sim_insts                                     1000024                       # Number of instructions simulated
sim_ops                                       1021855                       # Number of ops (including micro ops) simulated
sim_seconds                                  0.001181                       # Number of seconds simulated
sim_ticks                                  1181061200                       # Number of ticks simulated
system.cpu.Branches                                 2                       # Number of branches fetched
system.cpu.committedInsts                          21                       # Number of instructions committed
system.cpu.committedOps                            25                       # Number of ops (including micro ops) committed
system.cpu.idle_fraction                            0                       # Percentage of idle cycles
system.cpu.not_idle_fraction                        1                       # Percentage of non-idle cycles
system.cpu.numCycles                               25                       # number of cpu cycles simulated
system.cpu.numWorkItemsCompleted                    0                       # number of work items this cpu completed
system.cpu.numWorkItemsStarted                      0                       # number of work items this cpu started
system.cpu.num_busy_cycles                         25                       # Number of busy cycles
system.cpu.num_conditional_control_insts            1                       # number of instructions that are conditional controls
system.cpu.num_fp_alu_accesses                      0                       # Number of float alu accesses
system.cpu.num_fp_insts                             0                       # number of float instructions
system.cpu.num_fp_register_reads                    0                       # number of times the floating registers were read
system.cpu.num_fp_register_writes                   0                       # number of times the floating registers were written
system.cpu.num_func_calls                           1                       # number of times a function call or return occured
system.cpu.num_idle_cycles                          0                       # Number of idle cycles
system.cpu.num_int_alu_accesses                    25                       # Number of integer alu accesses
system.cpu.num_int_insts                           25                       # number of integer instructions
system.cpu.num_int_register_reads                  38                       # number of times the integer registers were read
system.cpu.num_int_register_writes                 18                       # number of times the integer registers were written
system.cpu.num_load_insts                           2                       # Number of load instructions
system.cpu.num_mem_refs                             8                       # number of memory refs
system.cpu.num_store_insts                          6                       # Number of store instructions
system.cpu.num_vec_alu_accesses                     0                       # Number of vector alu accesses
system.cpu.num_vec_insts                            0                       # number of vector instructions
system.cpu.num_vec_register_reads                   0                       # number of times the vector registers were read
system.cpu.num_vec_register_writes                  0                       # number of times the vector registers were written
system.cpu.op_class::No_OpClass                     0      0.00%      0.00% # Class of executed instruction
system.cpu.op_class::IntAlu                        17     68.00%     68.00% # Class of executed instruction
system.cpu.op_class::IntMult                        0      0.00%     68.00% # Class of executed instruction
system.cpu.op_class::IntDiv                         0      0.00%     68.00% # Class of executed instruction
system.cpu.op_class::FloatAdd                       0      0.00%     68.00% # Class of executed instruction
system.cpu.op_class::FloatCmp                       0      0.00%     68.00% # Class of executed instruction
system.cpu.op_class::FloatCvt                       0      0.00%     68.00% # Class of executed instruction
system.cpu.op_class::FloatMult                      0      0.00%     68.00% # Class of executed instruction
system.cpu.op_class::FloatMultAcc                   0      0.00%     68.00% # Class of executed instruction
system.cpu.op_class::FloatDiv                       0      0.00%     68.00% # Class of executed instruction
system.cpu.op_class::FloatMisc                      0      0.00%     68.00% # Class of executed instruction
system.cpu.op_class::FloatSqrt                      0      0.00%     68.00% # Class of executed instruction
system.cpu.op_class::SimdAdd                        0      0.00%     68.00% # Class of executed instruction
system.cpu.op_class::SimdAddAcc                     0      0.00%     68.00% # Class of executed instruction
system.cpu.op_class::SimdAlu                        0      0.00%     68.00% # Class of executed instruction
system.cpu.op_class::SimdCmp                        0      0.00%     68.00% # Class of executed instruction
system.cpu.op_class::SimdCvt                        0      0.00%     68.00% # Class of executed instruction
system.cpu.op_class::SimdMisc                       0      0.00%     68.00% # Class of executed instruction
system.cpu.op_class::SimdMult                       0      0.00%     68.00% # Class of executed instruction
system.cpu.op_class::SimdMultAcc                    0      0.00%     68.00% # Class of executed instruction
system.cpu.op_class::SimdShift                      0      0.00%     68.00% # Class of executed instruction
system.cpu.op_class::SimdShiftAcc                   0      0.00%     68.00% # Class of executed instruction
system.cpu.op_class::SimdDiv                        0      0.00%     68.00% # Class of executed instruction
system.cpu.op_class::SimdSqrt                       0      0.00%     68.00% # Class of executed instruction
system.cpu.op_class::SimdFloatAdd                   0      0.00%     68.00% # Class of executed instruction
system.cpu.op_class::SimdFloatAlu                   0      0.00%     68.00% # Class of executed instruction
system.cpu.op_class::SimdFloatCmp                   0      0.00%     68.00% # Class of executed instruction
system.cpu.op_class::SimdFloatCvt                   0      0.00%     68.00% # Class of executed instruction
system.cpu.op_class::SimdFloatDiv                   0      0.00%     68.00% # Class of executed instruction
system.cpu.op_class::SimdFloatMisc                  0      0.00%     68.00% # Class of executed instruction
system.cpu.op_class::SimdFloatMult                  0      0.00%     68.00% # Class of executed instruction
system.cpu.op_class::SimdFloatMultAcc               0      0.00%     68.00% # Class of executed instruction
system.cpu.op_class::SimdFloatSqrt                  0      0.00%     68.00% # Class of executed instruction
system.cpu.op_class::SimdReduceAdd                  0      0.00%     68.00% # Class of executed instruction
system.cpu.op_class::SimdReduceAlu                  0      0.00%     68.00% # Class of executed instruction
system.cpu.op_class::SimdReduceCmp                  0      0.00%     68.00% # Class of executed instruction
system.cpu.op_class::SimdFloatReduceAdd             0      0.00%     68.00% # Class of executed instruction
system.cpu.op_class::SimdFloatReduceCmp             0      0.00%     68.00% # Class of executed instruction
system.cpu.op_class::SimdAes                        0      0.00%     68.00% # Class of executed instruction
system.cpu.op_class::SimdAesMix                     0      0.00%     68.00% # Class of executed instruction
system.cpu.op_class::SimdSha1Hash                   0      0.00%     68.00% # Class of executed instruction
system.cpu.op_class::SimdSha1Hash2                  0      0.00%     68.00% # Class of executed instruction
system.cpu.op_class::SimdSha256Hash                 0      0.00%     68.00% # Class of executed instruction
system.cpu.op_class::SimdSha256Hash2                0      0.00%     68.00% # Class of executed instruction
system.cpu.op_class::SimdShaSigma2                  0      0.00%     68.00% # Class of executed instruction
system.cpu.op_class::SimdShaSigma3                  0      0.00%     68.00% # Class of executed instruction
system.cpu.op_class::SimdPredAlu                    0      0.00%     68.00% # Class of executed instruction
system.cpu.op_class::MemRead                        2      8.00%     76.00% # Class of executed instruction
system.cpu.op_class::MemWrite                       6     24.00%    100.00% # Class of executed instruction
system.cpu.op_class::FloatMemRead                   0      0.00%    100.00% # Class of executed instruction
system.cpu.op_class::FloatMemWrite                  0      0.00%    100.00% # Class of executed instruction
system.cpu.op_class::IprAccess                      0      0.00%    100.00% # Class of executed instruction
system.cpu.op_class::InstPrefetch                   0      0.00%    100.00% # Class of executed instruction
system.cpu.op_class::total                         25                       # Class of executed instruction
system.cpu.workload.numSyscalls                     0                       # Number of system calls
system.membus.snoop_filter.hit_multi_requests            0                       # Number of requests hitting in the snoop filter with multiple (>1) holders of the requested data.
system.membus.snoop_filter.hit_multi_snoops            0                       # Number of snoops hitting in the snoop filter with multiple (>1) holders of the requested data.
system.membus.snoop_filter.hit_single_requests        66966                       # Number of requests hitting in the snoop filter with a single holder of the requested data.
system.membus.snoop_filter.hit_single_snoops            0                       # Number of snoops hitting in the snoop filter with a single holder of the requested data.
system.membus.snoop_filter.tot_requests        142236                       # Total number of requests made to the snoop filter.
system.membus.snoop_filter.tot_snoops               0                       # Total number of snoops made to the snoop filter.
system.switch_cpus.cc_regfile_reads            374910                       # number of cc regfile reads
system.switch_cpus.cc_regfile_writes           376782                       # number of cc regfile writes
system.switch_cpus.committedInsts             1000003                       # Number of Instructions Simulated
system.switch_cpus.committedOps               1021830                       # Number of Ops (including micro ops) Simulated
system.switch_cpus.cpi                       2.952619                       # CPI: Cycles Per Instruction
system.switch_cpus.cpi_total                 2.952619                       # CPI: Total CPI of All Threads
system.switch_cpus.idleCycles                    3385                       # Total number of cycles that the CPU has spent unscheduled due to idling
system.switch_cpus.iew.branchMispredicts         6809                       # Number of branch mispredicts detected at execute
system.switch_cpus.iew.exec_branches           216565                       # Number of branches executed
system.switch_cpus.iew.exec_nop                   296                       # number of nop insts executed
system.switch_cpus.iew.exec_rate             0.497320                       # Inst execution rate
system.switch_cpus.iew.exec_refs               714991                       # number of memory reference insts executed
system.switch_cpus.iew.exec_stores              71255                       # Number of stores executed
system.switch_cpus.iew.exec_swp                     0                       # number of swp insts executed
system.switch_cpus.iew.iewBlockCycles          152509                       # Number of cycles IEW is blocking
system.switch_cpus.iew.iewDispLoadInsts        573379                       # Number of dispatched load instructions
system.switch_cpus.iew.iewDispNonSpecInsts            4                       # Number of dispatched non-speculative instructions
system.switch_cpus.iew.iewDispSquashedInsts            0                       # Number of squashed instructions skipped by dispatch
system.switch_cpus.iew.iewDispStoreInsts        86697                       # Number of dispatched store instructions
system.switch_cpus.iew.iewDispatchedInsts      1559553                       # Number of instructions dispatched to IQ
system.switch_cpus.iew.iewExecLoadInsts        643736                       # Number of load instructions executed
system.switch_cpus.iew.iewExecSquashedInsts         8692                       # Number of squashed instructions skipped in execute
system.switch_cpus.iew.iewExecutedInsts       1468400                       # Number of executed instructions
system.switch_cpus.iew.iewIQFullEvents            232                       # Number of times the IQ has become full, causing a stall
system.switch_cpus.iew.iewIdleCycles                0                       # Number of cycles IEW is idle
system.switch_cpus.iew.iewLSQFullEvents           281                       # Number of times the LSQ has become full, causing a stall
system.switch_cpus.iew.iewSquashCycles           6276                       # Number of cycles IEW is squashing
system.switch_cpus.iew.iewUnblockCycles           587                       # Number of cycles IEW is unblocking
system.switch_cpus.iew.memOrderViolationEvents           14                       # Number of memory order violations
system.switch_cpus.iew.predictedNotTakenIncorrect         3671                       # Number of branches that were predicted not taken incorrectly
system.switch_cpus.iew.predictedTakenIncorrect         3138                       # Number of branches that were predicted taken incorrectly
system.switch_cpus.iew.wb_consumers           1467596                       # num instructions consuming a value
system.switch_cpus.iew.wb_count               1300843                       # cumulative count of insts written-back
system.switch_cpus.iew.wb_fanout             0.576411                       # average fanout of values written-back
system.switch_cpus.iew.wb_producers            845938                       # num instructions producing a value
system.switch_cpus.iew.wb_rate               0.440571                       # insts written-back per cycle
system.switch_cpus.iew.wb_sent                1303906                       # cumulative count of insts sent to commit
system.switch_cpus.int_regfile_reads          1787269                       # number of integer regfile reads
system.switch_cpus.int_regfile_writes         1022371                       # number of integer regfile writes
system.switch_cpus.ipc                       0.338682                       # IPC: Instructions Per Cycle
system.switch_cpus.ipc_total                 0.338682                       # IPC: Total IPC of All Threads
system.switch_cpus.iq.FU_type_0::No_OpClass            2      0.00%      0.00% # Type of FU issued
system.switch_cpus.iq.FU_type_0::IntAlu        754370     51.07%     51.07% # Type of FU issued
system.switch_cpus.iq.FU_type_0::IntMult           22      0.00%     51.07% # Type of FU issued
system.switch_cpus.iq.FU_type_0::IntDiv             1      0.00%     51.07% # Type of FU issued
system.switch_cpus.iq.FU_type_0::FloatAdd            0      0.00%     51.07% # Type of FU issued
system.switch_cpus.iq.FU_type_0::FloatCmp            0      0.00%     51.07% # Type of FU issued
system.switch_cpus.iq.FU_type_0::FloatCvt            0      0.00%     51.07% # Type of FU issued
system.switch_cpus.iq.FU_type_0::FloatMult            0      0.00%     51.07% # Type of FU issued
system.switch_cpus.iq.FU_type_0::FloatMultAcc            0      0.00%     51.07% # Type of FU issued
system.switch_cpus.iq.FU_type_0::FloatDiv            0      0.00%     51.07% # Type of FU issued
system.switch_cpus.iq.FU_type_0::FloatMisc            0      0.00%     51.07% # Type of FU issued
system.switch_cpus.iq.FU_type_0::FloatSqrt            0      0.00%     51.07% # Type of FU issued
system.switch_cpus.iq.FU_type_0::SimdAdd            0      0.00%     51.07% # Type of FU issued
system.switch_cpus.iq.FU_type_0::SimdAddAcc            0      0.00%     51.07% # Type of FU issued
system.switch_cpus.iq.FU_type_0::SimdAlu            0      0.00%     51.07% # Type of FU issued
system.switch_cpus.iq.FU_type_0::SimdCmp            0      0.00%     51.07% # Type of FU issued
system.switch_cpus.iq.FU_type_0::SimdCvt            0      0.00%     51.07% # Type of FU issued
system.switch_cpus.iq.FU_type_0::SimdMisc            0      0.00%     51.07% # Type of FU issued
system.switch_cpus.iq.FU_type_0::SimdMult            0      0.00%     51.07% # Type of FU issued
system.switch_cpus.iq.FU_type_0::SimdMultAcc            0      0.00%     51.07% # Type of FU issued
system.switch_cpus.iq.FU_type_0::SimdShift            0      0.00%     51.07% # Type of FU issued
system.switch_cpus.iq.FU_type_0::SimdShiftAcc            0      0.00%     51.07% # Type of FU issued
system.switch_cpus.iq.FU_type_0::SimdDiv            0      0.00%     51.07% # Type of FU issued
system.switch_cpus.iq.FU_type_0::SimdSqrt            0      0.00%     51.07% # Type of FU issued
system.switch_cpus.iq.FU_type_0::SimdFloatAdd            0      0.00%     51.07% # Type of FU issued
system.switch_cpus.iq.FU_type_0::SimdFloatAlu            0      0.00%     51.07% # Type of FU issued
system.switch_cpus.iq.FU_type_0::SimdFloatCmp            0      0.00%     51.07% # Type of FU issued
system.switch_cpus.iq.FU_type_0::SimdFloatCvt            0      0.00%     51.07% # Type of FU issued
system.switch_cpus.iq.FU_type_0::SimdFloatDiv            0      0.00%     51.07% # Type of FU issued
system.switch_cpus.iq.FU_type_0::SimdFloatMisc            0      0.00%     51.07% # Type of FU issued
system.switch_cpus.iq.FU_type_0::SimdFloatMult            0      0.00%     51.07% # Type of FU issued
system.switch_cpus.iq.FU_type_0::SimdFloatMultAcc            0      0.00%     51.07% # Type of FU issued
system.switch_cpus.iq.FU_type_0::SimdFloatSqrt            0      0.00%     51.07% # Type of FU issued
system.switch_cpus.iq.FU_type_0::SimdReduceAdd            0      0.00%     51.07% # Type of FU issued
system.switch_cpus.iq.FU_type_0::SimdReduceAlu            0      0.00%     51.07% # Type of FU issued
system.switch_cpus.iq.FU_type_0::SimdReduceCmp            0      0.00%     51.07% # Type of FU issued
system.switch_cpus.iq.FU_type_0::SimdFloatReduceAdd            0      0.00%     51.07% # Type of FU issued
system.switch_cpus.iq.FU_type_0::SimdFloatReduceCmp            0      0.00%     51.07% # Type of FU issued
system.switch_cpus.iq.FU_type_0::SimdAes            0      0.00%     51.07% # Type of FU issued
system.switch_cpus.iq.FU_type_0::SimdAesMix            0      0.00%     51.07% # Type of FU issued
system.switch_cpus.iq.FU_type_0::SimdSha1Hash            0      0.00%     51.07% # Type of FU issued
system.switch_cpus.iq.FU_type_0::SimdSha1Hash2            0      0.00%     51.07% # Type of FU issued
system.switch_cpus.iq.FU_type_0::SimdSha256Hash            0      0.00%     51.07% # Type of FU issued
system.switch_cpus.iq.FU_type_0::SimdSha256Hash2            0      0.00%     51.07% # Type of FU issued
system.switch_cpus.iq.FU_type_0::SimdShaSigma2            0      0.00%     51.07% # Type of FU issued
system.switch_cpus.iq.FU_type_0::SimdShaSigma3            0      0.00%     51.07% # Type of FU issued
system.switch_cpus.iq.FU_type_0::SimdPredAlu            0      0.00%     51.07% # Type of FU issued
system.switch_cpus.iq.FU_type_0::MemRead       649452     43.97%     95.04% # Type of FU issued
system.switch_cpus.iq.FU_type_0::MemWrite        73246      4.96%    100.00% # Type of FU issued
system.switch_cpus.iq.FU_type_0::FloatMemRead            0      0.00%    100.00% # Type of FU issued
system.switch_cpus.iq.FU_type_0::FloatMemWrite            0      0.00%    100.00% # Type of FU issued
system.switch_cpus.iq.FU_type_0::IprAccess            0      0.00%    100.00% # Type of FU issued
system.switch_cpus.iq.FU_type_0::InstPrefetch            0      0.00%    100.00% # Type of FU issued
system.switch_cpus.iq.FU_type_0::total        1477093                       # Type of FU issued
system.switch_cpus.iq.fp_alu_accesses               0                       # Number of floating point alu accesses
system.switch_cpus.iq.fp_inst_queue_reads            0                       # Number of floating instruction queue reads
system.switch_cpus.iq.fp_inst_queue_wakeup_accesses            0                       # Number of floating instruction queue wakeup accesses
system.switch_cpus.iq.fp_inst_queue_writes            0                       # Number of floating instruction queue writes
system.switch_cpus.iq.fu_busy_cnt              565296                       # FU busy when requested
system.switch_cpus.iq.fu_busy_rate           0.382708                       # FU busy rate (busy events/executed inst)
system.switch_cpus.iq.fu_full::No_OpClass            0      0.00%      0.00% # attempts to use FU when none available
system.switch_cpus.iq.fu_full::IntAlu          125316     22.17%     22.17% # attempts to use FU when none available
system.switch_cpus.iq.fu_full::IntMult              3      0.00%     22.17% # attempts to use FU when none available
system.switch_cpus.iq.fu_full::IntDiv               0      0.00%     22.17% # attempts to use FU when none available
system.switch_cpus.iq.fu_full::FloatAdd             0      0.00%     22.17% # attempts to use FU when none available
system.switch_cpus.iq.fu_full::FloatCmp             0      0.00%     22.17% # attempts to use FU when none available
system.switch_cpus.iq.fu_full::FloatCvt             0      0.00%     22.17% # attempts to use FU when none available
system.switch_cpus.iq.fu_full::FloatMult            0      0.00%     22.17% # attempts to use FU when none available
system.switch_cpus.iq.fu_full::FloatMultAcc            0      0.00%     22.17% # attempts to use FU when none available
system.switch_cpus.iq.fu_full::FloatDiv             0      0.00%     22.17% # attempts to use FU when none available
system.switch_cpus.iq.fu_full::FloatMisc            0      0.00%     22.17% # attempts to use FU when none available
system.switch_cpus.iq.fu_full::FloatSqrt            0      0.00%     22.17% # attempts to use FU when none available
system.switch_cpus.iq.fu_full::SimdAdd              0      0.00%     22.17% # attempts to use FU when none available
system.switch_cpus.iq.fu_full::SimdAddAcc            0      0.00%     22.17% # attempts to use FU when none available
system.switch_cpus.iq.fu_full::SimdAlu              0      0.00%     22.17% # attempts to use FU when none available
system.switch_cpus.iq.fu_full::SimdCmp              0      0.00%     22.17% # attempts to use FU when none available
system.switch_cpus.iq.fu_full::SimdCvt              0      0.00%     22.17% # attempts to use FU when none available
system.switch_cpus.iq.fu_full::SimdMisc             0      0.00%     22.17% # attempts to use FU when none available
system.switch_cpus.iq.fu_full::SimdMult             0      0.00%     22.17% # attempts to use FU when none available
system.switch_cpus.iq.fu_full::SimdMultAcc            0      0.00%     22.17% # attempts to use FU when none available
system.switch_cpus.iq.fu_full::SimdShift            0      0.00%     22.17% # attempts to use FU when none available
system.switch_cpus.iq.fu_full::SimdShiftAcc            0      0.00%     22.17% # attempts to use FU when none available
system.switch_cpus.iq.fu_full::SimdDiv              0      0.00%     22.17% # attempts to use FU when none available
system.switch_cpus.iq.fu_full::SimdSqrt             0      0.00%     22.17% # attempts to use FU when none available
system.switch_cpus.iq.fu_full::SimdFloatAdd            0      0.00%     22.17% # attempts to use FU when none available
system.switch_cpus.iq.fu_full::SimdFloatAlu            0      0.00%     22.17% # attempts to use FU when none available
system.switch_cpus.iq.fu_full::SimdFloatCmp            0      0.00%     22.17% # attempts to use FU when none available
system.switch_cpus.iq.fu_full::SimdFloatCvt            0      0.00%     22.17% # attempts to use FU when none available
system.switch_cpus.iq.fu_full::SimdFloatDiv            0      0.00%     22.17% # attempts to use FU when none available
system.switch_cpus.iq.fu_full::SimdFloatMisc            0      0.00%     22.17% # attempts to use FU when none available
system.switch_cpus.iq.fu_full::SimdFloatMult            0      0.00%     22.17% # attempts to use FU when none available
system.switch_cpus.iq.fu_full::SimdFloatMultAcc            0      0.00%     22.17% # attempts to use FU when none available
system.switch_cpus.iq.fu_full::SimdFloatSqrt            0      0.00%     22.17% # attempts to use FU when none available
system.switch_cpus.iq.fu_full::SimdReduceAdd            0      0.00%     22.17% # attempts to use FU when none available
system.switch_cpus.iq.fu_full::SimdReduceAlu            0      0.00%     22.17% # attempts to use FU when none available
system.switch_cpus.iq.fu_full::SimdReduceCmp            0      0.00%     22.17% # attempts to use FU when none available
system.switch_cpus.iq.fu_full::SimdFloatReduceAdd            0      0.00%     22.17% # attempts to use FU when none available
system.switch_cpus.iq.fu_full::SimdFloatReduceCmp            0      0.00%     22.17% # attempts to use FU when none available
system.switch_cpus.iq.fu_full::SimdAes              0      0.00%     22.17% # attempts to use FU when none available
system.switch_cpus.iq.fu_full::SimdAesMix            0      0.00%     22.17% # attempts to use FU when none available
system.switch_cpus.iq.fu_full::SimdSha1Hash            0      0.00%     22.17% # attempts to use FU when none available
system.switch_cpus.iq.fu_full::SimdSha1Hash2            0      0.00%     22.17% # attempts to use FU when none available
system.switch_cpus.iq.fu_full::SimdSha256Hash            0      0.00%     22.17% # attempts to use FU when none available
system.switch_cpus.iq.fu_full::SimdSha256Hash2            0      0.00%     22.17% # attempts to use FU when none available
system.switch_cpus.iq.fu_full::SimdShaSigma2            0      0.00%     22.17% # attempts to use FU when none available
system.switch_cpus.iq.fu_full::SimdShaSigma3            0      0.00%     22.17% # attempts to use FU when none available
system.switch_cpus.iq.fu_full::SimdPredAlu            0      0.00%     22.17% # attempts to use FU when none available
system.switch_cpus.iq.fu_full::MemRead         405093     71.66%     93.83% # attempts to use FU when none available
system.switch_cpus.iq.fu_full::MemWrite         34884      6.17%    100.00% # attempts to use FU when none available
system.switch_cpus.iq.fu_full::FloatMemRead            0      0.00%    100.00% # attempts to use FU when none available
system.switch_cpus.iq.fu_full::FloatMemWrite            0      0.00%    100.00% # attempts to use FU when none available
system.switch_cpus.iq.fu_full::IprAccess            0      0.00%    100.00% # attempts to use FU when none available
system.switch_cpus.iq.fu_full::InstPrefetch            0      0.00%    100.00% # attempts to use FU when none available
system.switch_cpus.iq.int_alu_accesses        2042387                       # Number of integer alu accesses
system.switch_cpus.iq.int_inst_queue_reads      6485822                       # Number of integer instruction queue reads
system.switch_cpus.iq.int_inst_queue_wakeup_accesses      1300843                       # Number of integer instruction queue wakeup accesses
system.switch_cpus.iq.int_inst_queue_writes      2096603                       # Number of integer instruction queue writes
system.switch_cpus.iq.iqInstsAdded            1559253                       # Number of instructions added to the IQ (excludes non-spec)
system.switch_cpus.iq.iqInstsIssued           1477093                       # Number of instructions issued
system.switch_cpus.iq.iqNonSpecInstsAdded            4                       # Number of non-speculative instructions added to the IQ
system.switch_cpus.iq.iqSquashedInstsExamined       537334                       # Number of squashed instructions iterated over during squash; mainly for profiling
system.switch_cpus.iq.iqSquashedInstsIssued        17098                       # Number of squashed instructions issued
system.switch_cpus.iq.iqSquashedNonSpecRemoved            4                       # Number of squashed non-spec instructions that were removed
system.switch_cpus.iq.iqSquashedOperandsExamined       431337                       # Number of squashed operands that are examined and possibly removed from graph
system.switch_cpus.iq.issued_per_cycle::samples      2949243                       # Number of insts issued each cycle
system.switch_cpus.iq.issued_per_cycle::mean     0.500838                       # Number of insts issued each cycle
system.switch_cpus.iq.issued_per_cycle::stdev     0.897568                       # Number of insts issued each cycle
system.switch_cpus.iq.issued_per_cycle::underflows            0      0.00%      0.00% # Number of insts issued each cycle
system.switch_cpus.iq.issued_per_cycle::0      2044888     69.34%     69.34% # Number of insts issued each cycle
system.switch_cpus.iq.issued_per_cycle::1       538165     18.25%     87.58% # Number of insts issued each cycle
system.switch_cpus.iq.issued_per_cycle::2       199698      6.77%     94.35% # Number of insts issued each cycle
system.switch_cpus.iq.issued_per_cycle::3       126436      4.29%     98.64% # Number of insts issued each cycle
system.switch_cpus.iq.issued_per_cycle::4        40056      1.36%    100.00% # Number of insts issued each cycle
system.switch_cpus.iq.issued_per_cycle::5            0      0.00%    100.00% # Number of insts issued each cycle
system.switch_cpus.iq.issued_per_cycle::6            0      0.00%    100.00% # Number of insts issued each cycle
system.switch_cpus.iq.issued_per_cycle::7            0      0.00%    100.00% # Number of insts issued each cycle
system.switch_cpus.iq.issued_per_cycle::8            0      0.00%    100.00% # Number of insts issued each cycle
system.switch_cpus.iq.issued_per_cycle::overflows            0      0.00%    100.00% # Number of insts issued each cycle
system.switch_cpus.iq.issued_per_cycle::min_value            0                       # Number of insts issued each cycle
system.switch_cpus.iq.issued_per_cycle::max_value            4                       # Number of insts issued each cycle
system.switch_cpus.iq.issued_per_cycle::total      2949243                       # Number of insts issued each cycle
system.switch_cpus.iq.rate                   0.500264                       # Inst issue rate
system.switch_cpus.iq.vec_alu_accesses              0                       # Number of vector alu accesses
system.switch_cpus.iq.vec_inst_queue_reads            0                       # Number of vector instruction queue reads
system.switch_cpus.iq.vec_inst_queue_wakeup_accesses            0                       # Number of vector instruction queue wakeup accesses
system.switch_cpus.iq.vec_inst_queue_writes            0                       # Number of vector instruction queue writes
system.switch_cpus.memDep0.conflictingLoads         8218                       # Number of conflicting loads.
system.switch_cpus.memDep0.conflictingStores         2491                       # Number of conflicting stores.
system.switch_cpus.memDep0.insertedLoads       573379                       # Number of loads inserted to the mem dependence unit.
system.switch_cpus.memDep0.insertedStores        86697                       # Number of stores inserted to the mem dependence unit.
system.switch_cpus.misc_regfile_reads         2780704                       # number of misc regfile reads
system.switch_cpus.misc_regfile_writes              1                       # number of misc regfile writes
system.switch_cpus.numCycles                  2952628                       # number of cpu cycles simulated
system.switch_cpus.numWorkItemsCompleted            0                       # number of work items this cpu completed
system.switch_cpus.numWorkItemsStarted              0                       # number of work items this cpu started
system.switch_cpus.timesIdled                      39                       # Number of times that the entire CPU went into an idle state and unscheduled itself
system.switch_cpus.vec_regfile_writes              44                       # number of vector regfile writes
system.tol2bus.snoop_filter.hit_multi_requests            0                       # Number of requests hitting in the snoop filter with multiple (>1) holders of the requested data.
system.tol2bus.snoop_filter.hit_multi_snoops            0                       # Number of snoops hitting in the snoop filter with multiple (>1) holders of the requested data.
system.tol2bus.snoop_filter.hit_single_requests       129221                       # Number of requests hitting in the snoop filter with a single holder of the requested data.
system.tol2bus.snoop_filter.hit_single_snoops          363                       # Number of snoops hitting in the snoop filter with a single holder of the requested data.
system.tol2bus.snoop_filter.tot_requests       258746                       # Total number of requests made to the snoop filter.
system.tol2bus.snoop_filter.tot_snoops            363                       # Total number of snoops made to the snoop filter.
system.clk_domain.clock                          1000                       # Clock period in ticks
system.cpu.dcache.demand_hits::.cpu.data            4                       # number of demand (read+write) hits
system.cpu.dcache.demand_hits::.switch_cpus.data       317394                       # number of demand (read+write) hits
system.cpu.dcache.demand_hits::total           317398                       # number of demand (read+write) hits
system.cpu.dcache.overall_hits::.cpu.data            4                       # number of overall hits
system.cpu.dcache.overall_hits::.switch_cpus.data       317394                       # number of overall hits
system.cpu.dcache.overall_hits::total          317398                       # number of overall hits
system.cpu.dcache.demand_misses::.cpu.data            4                       # number of demand (read+write) misses
system.cpu.dcache.demand_misses::.switch_cpus.data       219271                       # number of demand (read+write) misses
system.cpu.dcache.demand_misses::total         219275                       # number of demand (read+write) misses
system.cpu.dcache.overall_misses::.cpu.data            4                       # number of overall misses
system.cpu.dcache.overall_misses::.switch_cpus.data       219271                       # number of overall misses
system.cpu.dcache.overall_misses::total        219275                       # number of overall misses
system.cpu.dcache.demand_miss_latency::.switch_cpus.data   9222589129                       # number of demand (read+write) miss cycles
system.cpu.dcache.demand_miss_latency::total   9222589129                       # number of demand (read+write) miss cycles
system.cpu.dcache.overall_miss_latency::.switch_cpus.data   9222589129                       # number of overall miss cycles
system.cpu.dcache.overall_miss_latency::total   9222589129                       # number of overall miss cycles
system.cpu.dcache.demand_accesses::.cpu.data            8                       # number of demand (read+write) accesses
system.cpu.dcache.demand_accesses::.switch_cpus.data       536665                       # number of demand (read+write) accesses
system.cpu.dcache.demand_accesses::total       536673                       # number of demand (read+write) accesses
system.cpu.dcache.overall_accesses::.cpu.data            8                       # number of overall (read+write) accesses
system.cpu.dcache.overall_accesses::.switch_cpus.data       536665                       # number of overall (read+write) accesses
system.cpu.dcache.overall_accesses::total       536673                       # number of overall (read+write) accesses
system.cpu.dcache.demand_miss_rate::.cpu.data     0.500000                       # miss rate for demand accesses
system.cpu.dcache.demand_miss_rate::.switch_cpus.data     0.408581                       # miss rate for demand accesses
system.cpu.dcache.demand_miss_rate::total     0.408582                       # miss rate for demand accesses
system.cpu.dcache.overall_miss_rate::.cpu.data     0.500000                       # miss rate for overall accesses
system.cpu.dcache.overall_miss_rate::.switch_cpus.data     0.408581                       # miss rate for overall accesses
system.cpu.dcache.overall_miss_rate::total     0.408582                       # miss rate for overall accesses
system.cpu.dcache.demand_avg_miss_latency::.switch_cpus.data 42060.231991                       # average overall miss latency
system.cpu.dcache.demand_avg_miss_latency::total 42059.464732                       # average overall miss latency
system.cpu.dcache.overall_avg_miss_latency::.switch_cpus.data 42060.231991                       # average overall miss latency
system.cpu.dcache.overall_avg_miss_latency::total 42059.464732                       # average overall miss latency
system.cpu.dcache.blocked_cycles::no_mshrs      1001321                       # number of cycles access was blocked
system.cpu.dcache.blocked_cycles::no_targets       119432                       # number of cycles access was blocked
system.cpu.dcache.blocked::no_mshrs             65806                       # number of cycles access was blocked
system.cpu.dcache.blocked::no_targets             935                       # number of cycles access was blocked
system.cpu.dcache.avg_blocked_cycles::no_mshrs    15.216257                       # average number of cycles each access was blocked
system.cpu.dcache.avg_blocked_cycles::no_targets   127.734759                       # average number of cycles each access was blocked
system.cpu.dcache.writebacks::.writebacks       129220                       # number of writebacks
system.cpu.dcache.writebacks::total            129220                       # number of writebacks
system.cpu.dcache.demand_mshr_hits::.switch_cpus.data        89797                       # number of demand (read+write) MSHR hits
system.cpu.dcache.demand_mshr_hits::total        89797                       # number of demand (read+write) MSHR hits
system.cpu.dcache.overall_mshr_hits::.switch_cpus.data        89797                       # number of overall MSHR hits
system.cpu.dcache.overall_mshr_hits::total        89797                       # number of overall MSHR hits
system.cpu.dcache.demand_mshr_misses::.switch_cpus.data       129474                       # number of demand (read+write) MSHR misses
system.cpu.dcache.demand_mshr_misses::total       129474                       # number of demand (read+write) MSHR misses
system.cpu.dcache.overall_mshr_misses::.switch_cpus.data       129474                       # number of overall MSHR misses
system.cpu.dcache.overall_mshr_misses::total       129474                       # number of overall MSHR misses
system.cpu.dcache.demand_mshr_miss_latency::.switch_cpus.data   4923188392                       # number of demand (read+write) MSHR miss cycles
system.cpu.dcache.demand_mshr_miss_latency::total   4923188392                       # number of demand (read+write) MSHR miss cycles
system.cpu.dcache.overall_mshr_miss_latency::.switch_cpus.data   4923188392                       # number of overall MSHR miss cycles
system.cpu.dcache.overall_mshr_miss_latency::total   4923188392                       # number of overall MSHR miss cycles
system.cpu.dcache.demand_mshr_miss_rate::.switch_cpus.data     0.241257                       # mshr miss rate for demand accesses
system.cpu.dcache.demand_mshr_miss_rate::total     0.241253                       # mshr miss rate for demand accesses
system.cpu.dcache.overall_mshr_miss_rate::.switch_cpus.data     0.241257                       # mshr miss rate for overall accesses
system.cpu.dcache.overall_mshr_miss_rate::total     0.241253                       # mshr miss rate for overall accesses
system.cpu.dcache.demand_avg_mshr_miss_latency::.switch_cpus.data 38024.533049                       # average overall mshr miss latency
system.cpu.dcache.demand_avg_mshr_miss_latency::total 38024.533049                       # average overall mshr miss latency
system.cpu.dcache.overall_avg_mshr_miss_latency::.switch_cpus.data 38024.533049                       # average overall mshr miss latency
system.cpu.dcache.overall_avg_mshr_miss_latency::total 38024.533049                       # average overall mshr miss latency
system.cpu.dcache.replacements                 129220                       # number of replacements
system.cpu.dcache.ReadReq_hits::.switch_cpus.data       280766                       # number of ReadReq hits
system.cpu.dcache.ReadReq_hits::total          280766                       # number of ReadReq hits
system.cpu.dcache.ReadReq_misses::.cpu.data            2                       # number of ReadReq misses
system.cpu.dcache.ReadReq_misses::.switch_cpus.data       208171                       # number of ReadReq misses
system.cpu.dcache.ReadReq_misses::total        208173                       # number of ReadReq misses
system.cpu.dcache.ReadReq_miss_latency::.switch_cpus.data   8473614000                       # number of ReadReq miss cycles
system.cpu.dcache.ReadReq_miss_latency::total   8473614000                       # number of ReadReq miss cycles
system.cpu.dcache.ReadReq_accesses::.cpu.data            2                       # number of ReadReq accesses(hits+misses)
system.cpu.dcache.ReadReq_accesses::.switch_cpus.data       488937                       # number of ReadReq accesses(hits+misses)
system.cpu.dcache.ReadReq_accesses::total       488939                       # number of ReadReq accesses(hits+misses)
system.cpu.dcache.ReadReq_miss_rate::.cpu.data            1                       # miss rate for ReadReq accesses
system.cpu.dcache.ReadReq_miss_rate::.switch_cpus.data     0.425762                       # miss rate for ReadReq accesses
system.cpu.dcache.ReadReq_miss_rate::total     0.425765                       # miss rate for ReadReq accesses
system.cpu.dcache.ReadReq_avg_miss_latency::.switch_cpus.data 40705.064586                       # average ReadReq miss latency
system.cpu.dcache.ReadReq_avg_miss_latency::total 40704.673517                       # average ReadReq miss latency
system.cpu.dcache.ReadReq_mshr_hits::.switch_cpus.data        80729                       # number of ReadReq MSHR hits
system.cpu.dcache.ReadReq_mshr_hits::total        80729                       # number of ReadReq MSHR hits
system.cpu.dcache.ReadReq_mshr_misses::.switch_cpus.data       127442                       # number of ReadReq MSHR misses
system.cpu.dcache.ReadReq_mshr_misses::total       127442                       # number of ReadReq MSHR misses
system.cpu.dcache.ReadReq_mshr_miss_latency::.switch_cpus.data   4766866000                       # number of ReadReq MSHR miss cycles
system.cpu.dcache.ReadReq_mshr_miss_latency::total   4766866000                       # number of ReadReq MSHR miss cycles
system.cpu.dcache.ReadReq_mshr_miss_rate::.switch_cpus.data     0.260651                       # mshr miss rate for ReadReq accesses
system.cpu.dcache.ReadReq_mshr_miss_rate::total     0.260650                       # mshr miss rate for ReadReq accesses
system.cpu.dcache.ReadReq_avg_mshr_miss_latency::.switch_cpus.data 37404.199557                       # average ReadReq mshr miss latency
system.cpu.dcache.ReadReq_avg_mshr_miss_latency::total 37404.199557                       # average ReadReq mshr miss latency
system.cpu.dcache.WriteReq_hits::.cpu.data            4                       # number of WriteReq hits
system.cpu.dcache.WriteReq_hits::.switch_cpus.data        36628                       # number of WriteReq hits
system.cpu.dcache.WriteReq_hits::total          36632                       # number of WriteReq hits
system.cpu.dcache.WriteReq_misses::.cpu.data            2                       # number of WriteReq misses
system.cpu.dcache.WriteReq_misses::.switch_cpus.data        11100                       # number of WriteReq misses
system.cpu.dcache.WriteReq_misses::total        11102                       # number of WriteReq misses
system.cpu.dcache.WriteReq_miss_latency::.switch_cpus.data    748975129                       # number of WriteReq miss cycles
system.cpu.dcache.WriteReq_miss_latency::total    748975129                       # number of WriteReq miss cycles
system.cpu.dcache.WriteReq_accesses::.cpu.data            6                       # number of WriteReq accesses(hits+misses)
system.cpu.dcache.WriteReq_accesses::.switch_cpus.data        47728                       # number of WriteReq accesses(hits+misses)
system.cpu.dcache.WriteReq_accesses::total        47734                       # number of WriteReq accesses(hits+misses)
system.cpu.dcache.WriteReq_miss_rate::.cpu.data     0.333333                       # miss rate for WriteReq accesses
system.cpu.dcache.WriteReq_miss_rate::.switch_cpus.data     0.232568                       # miss rate for WriteReq accesses
system.cpu.dcache.WriteReq_miss_rate::total     0.232581                       # miss rate for WriteReq accesses
system.cpu.dcache.WriteReq_avg_miss_latency::.switch_cpus.data 67475.236847                       # average WriteReq miss latency
system.cpu.dcache.WriteReq_avg_miss_latency::total 67463.081337                       # average WriteReq miss latency
system.cpu.dcache.WriteReq_mshr_hits::.switch_cpus.data         9068                       # number of WriteReq MSHR hits
system.cpu.dcache.WriteReq_mshr_hits::total         9068                       # number of WriteReq MSHR hits
system.cpu.dcache.WriteReq_mshr_misses::.switch_cpus.data         2032                       # number of WriteReq MSHR misses
system.cpu.dcache.WriteReq_mshr_misses::total         2032                       # number of WriteReq MSHR misses
system.cpu.dcache.WriteReq_mshr_miss_latency::.switch_cpus.data    156322392                       # number of WriteReq MSHR miss cycles
system.cpu.dcache.WriteReq_mshr_miss_latency::total    156322392                       # number of WriteReq MSHR miss cycles
system.cpu.dcache.WriteReq_mshr_miss_rate::.switch_cpus.data     0.042575                       # mshr miss rate for WriteReq accesses
system.cpu.dcache.WriteReq_mshr_miss_rate::total     0.042569                       # mshr miss rate for WriteReq accesses
system.cpu.dcache.WriteReq_avg_mshr_miss_latency::.switch_cpus.data 76930.311024                       # average WriteReq mshr miss latency
system.cpu.dcache.WriteReq_avg_mshr_miss_latency::total 76930.311024                       # average WriteReq mshr miss latency
system.cpu.dcache.power_state.pwrStateResidencyTicks::UNDEFINED 5274453870800                       # Cumulative time (in ticks) in various power states
system.cpu.dcache.tags.tagsinuse           255.299892                       # Cycle average of tags in use
system.cpu.dcache.tags.total_refs              442929                       # Total number of references to valid blocks.
system.cpu.dcache.tags.sampled_refs            129220                       # Sample count of references to valid blocks.
system.cpu.dcache.tags.avg_refs              3.427712                       # Average number of references to valid blocks.
system.cpu.dcache.tags.warmup_cycle      5273272810000                       # Cycle when the warmup percentage was hit.
system.cpu.dcache.tags.occ_blocks::.cpu.data     0.309128                       # Average occupied blocks per requestor
system.cpu.dcache.tags.occ_blocks::.switch_cpus.data   254.990764                       # Average occupied blocks per requestor
system.cpu.dcache.tags.occ_percent::.cpu.data     0.001208                       # Average percentage of cache occupancy
system.cpu.dcache.tags.occ_percent::.switch_cpus.data     0.996058                       # Average percentage of cache occupancy
system.cpu.dcache.tags.occ_percent::total     0.997265                       # Average percentage of cache occupancy
system.cpu.dcache.tags.occ_task_id_blocks::1024          256                       # Occupied blocks per task id
system.cpu.dcache.tags.age_task_id_blocks_1024::0          255                       # Occupied blocks per task id
system.cpu.dcache.tags.age_task_id_blocks_1024::1            1                       # Occupied blocks per task id
system.cpu.dcache.tags.occ_task_id_percent::1024            1                       # Percentage of cache occupancy per task id
system.cpu.dcache.tags.tag_accesses           4422860                       # Number of tag accesses
system.cpu.dcache.tags.data_accesses          4422860                       # Number of data accesses
system.cpu.dcache.tags.power_state.pwrStateResidencyTicks::UNDEFINED 5274453870800                       # Cumulative time (in ticks) in various power states
system.cpu.dtb.instHits                             0                       # ITB inst hits
system.cpu.dtb.instMisses                           0                       # ITB inst misses
system.cpu.dtb.readHits                             0                       # DTB read hits
system.cpu.dtb.readMisses                           0                       # DTB read misses
system.cpu.dtb.writeHits                            0                       # DTB write hits
system.cpu.dtb.writeMisses                          0                       # DTB write misses
system.cpu.dtb.inserts                              0                       # Number of times an entry is inserted into the TLB
system.cpu.dtb.flushTlb                             2                       # Number of times complete TLB was flushed
system.cpu.dtb.flushTlbMva                          0                       # Number of times TLB was flushed by MVA
system.cpu.dtb.flushTlbMvaAsid                      0                       # Number of times TLB was flushed by MVA & ASID
system.cpu.dtb.flushTlbAsid                         0                       # Number of times TLB was flushed by ASID
system.cpu.dtb.flushedEntries                       0                       # Number of entries that have been flushed from TLB
system.cpu.dtb.alignFaults                          0                       # Number of TLB faults due to alignment restrictions
system.cpu.dtb.prefetchFaults                       0                       # Number of TLB faults due to prefetch
system.cpu.dtb.domainFaults                         0                       # Number of TLB faults due to domain restrictions
system.cpu.dtb.permsFaults                          0                       # Number of TLB faults due to permissions restrictions
system.cpu.dtb.readAccesses                         0                       # DTB read accesses
system.cpu.dtb.writeAccesses                        0                       # DTB write accesses
system.cpu.dtb.instAccesses                         0                       # ITB inst accesses
system.cpu.dtb.hits                                 0                       # Total TLB (inst and data) hits
system.cpu.dtb.misses                               0                       # Total TLB (inst and data) misses
system.cpu.dtb.accesses                             0                       # Total TLB (inst and data) accesses
system.cpu.dtb.stage2_mmu.stage2_tlb.instHits            0                       # ITB inst hits
system.cpu.dtb.stage2_mmu.stage2_tlb.instMisses            0                       # ITB inst misses
system.cpu.dtb.stage2_mmu.stage2_tlb.readHits            0                       # DTB read hits
system.cpu.dtb.stage2_mmu.stage2_tlb.readMisses            0                       # DTB read misses
system.cpu.dtb.stage2_mmu.stage2_tlb.writeHits            0                       # DTB write hits
system.cpu.dtb.stage2_mmu.stage2_tlb.writeMisses            0                       # DTB write misses
system.cpu.dtb.stage2_mmu.stage2_tlb.inserts            0                       # Number of times an entry is inserted into the TLB
system.cpu.dtb.stage2_mmu.stage2_tlb.flushTlb            0                       # Number of times complete TLB was flushed
system.cpu.dtb.stage2_mmu.stage2_tlb.flushTlbMva            0                       # Number of times TLB was flushed by MVA
system.cpu.dtb.stage2_mmu.stage2_tlb.flushTlbMvaAsid            0                       # Number of times TLB was flushed by MVA & ASID
system.cpu.dtb.stage2_mmu.stage2_tlb.flushTlbAsid            0                       # Number of times TLB was flushed by ASID
system.cpu.dtb.stage2_mmu.stage2_tlb.flushedEntries            0                       # Number of entries that have been flushed from TLB
system.cpu.dtb.stage2_mmu.stage2_tlb.alignFaults            0                       # Number of TLB faults due to alignment restrictions
system.cpu.dtb.stage2_mmu.stage2_tlb.prefetchFaults            0                       # Number of TLB faults due to prefetch
system.cpu.dtb.stage2_mmu.stage2_tlb.domainFaults            0                       # Number of TLB faults due to domain restrictions
system.cpu.dtb.stage2_mmu.stage2_tlb.permsFaults            0                       # Number of TLB faults due to permissions restrictions
system.cpu.dtb.stage2_mmu.stage2_tlb.readAccesses            0                       # DTB read accesses
system.cpu.dtb.stage2_mmu.stage2_tlb.writeAccesses            0                       # DTB write accesses
system.cpu.dtb.stage2_mmu.stage2_tlb.instAccesses            0                       # ITB inst accesses
system.cpu.dtb.stage2_mmu.stage2_tlb.hits            0                       # Total TLB (inst and data) hits
system.cpu.dtb.stage2_mmu.stage2_tlb.misses            0                       # Total TLB (inst and data) misses
system.cpu.dtb.stage2_mmu.stage2_tlb.accesses            0                       # Total TLB (inst and data) accesses
system.cpu.dtb.stage2_mmu.stage2_tlb.walker.walks            0                       # Table walker walks requested
system.cpu.dtb.stage2_mmu.stage2_tlb.walker.requestOrigin_Requested::Data            0                       # Table walker requests started/completed, data/inst
system.cpu.dtb.stage2_mmu.stage2_tlb.walker.requestOrigin_Requested::Inst            0                       # Table walker requests started/completed, data/inst
system.cpu.dtb.stage2_mmu.stage2_tlb.walker.requestOrigin_Requested::total            0                       # Table walker requests started/completed, data/inst
system.cpu.dtb.stage2_mmu.stage2_tlb.walker.requestOrigin_Completed::Data            0                       # Table walker requests started/completed, data/inst
system.cpu.dtb.stage2_mmu.stage2_tlb.walker.requestOrigin_Completed::Inst            0                       # Table walker requests started/completed, data/inst
system.cpu.dtb.stage2_mmu.stage2_tlb.walker.requestOrigin_Completed::total            0                       # Table walker requests started/completed, data/inst
system.cpu.dtb.stage2_mmu.stage2_tlb.walker.requestOrigin::total            0                       # Table walker requests started/completed, data/inst
system.cpu.dtb.stage2_mmu.stage2_tlb.walker.power_state.pwrStateResidencyTicks::UNDEFINED 5274453870800                       # Cumulative time (in ticks) in various power states
system.cpu.dtb.walker.walks                         0                       # Table walker walks requested
system.cpu.dtb.walker.requestOrigin_Requested::Data            0                       # Table walker requests started/completed, data/inst
system.cpu.dtb.walker.requestOrigin_Requested::Inst            0                       # Table walker requests started/completed, data/inst
system.cpu.dtb.walker.requestOrigin_Requested::total            0                       # Table walker requests started/completed, data/inst
system.cpu.dtb.walker.requestOrigin_Completed::Data            0                       # Table walker requests started/completed, data/inst
system.cpu.dtb.walker.requestOrigin_Completed::Inst            0                       # Table walker requests started/completed, data/inst
system.cpu.dtb.walker.requestOrigin_Completed::total            0                       # Table walker requests started/completed, data/inst
system.cpu.dtb.walker.requestOrigin::total            0                       # Table walker requests started/completed, data/inst
system.cpu.dtb.walker.power_state.pwrStateResidencyTicks::UNDEFINED 5274453870800                       # Cumulative time (in ticks) in various power states
system.cpu.dtb_walker_cache.blocked_cycles::no_mshrs            0                       # number of cycles access was blocked
system.cpu.dtb_walker_cache.blocked_cycles::no_targets            0                       # number of cycles access was blocked
system.cpu.dtb_walker_cache.blocked::no_mshrs            0                       # number of cycles access was blocked
system.cpu.dtb_walker_cache.blocked::no_targets            0                       # number of cycles access was blocked
system.cpu.dtb_walker_cache.avg_blocked_cycles::no_mshrs          nan                       # average number of cycles each access was blocked
system.cpu.dtb_walker_cache.avg_blocked_cycles::no_targets          nan                       # average number of cycles each access was blocked
system.cpu.dtb_walker_cache.replacements            0                       # number of replacements
system.cpu.dtb_walker_cache.power_state.pwrStateResidencyTicks::UNDEFINED 5274453870800                       # Cumulative time (in ticks) in various power states
system.cpu.dtb_walker_cache.tags.tagsinuse            0                       # Cycle average of tags in use
system.cpu.dtb_walker_cache.tags.total_refs            0                       # Total number of references to valid blocks.
system.cpu.dtb_walker_cache.tags.sampled_refs            0                       # Sample count of references to valid blocks.
system.cpu.dtb_walker_cache.tags.avg_refs          nan                       # Average number of references to valid blocks.
system.cpu.dtb_walker_cache.tags.warmup_cycle            0                       # Cycle when the warmup percentage was hit.
system.cpu.dtb_walker_cache.tags.tag_accesses            0                       # Number of tag accesses
system.cpu.dtb_walker_cache.tags.data_accesses            0                       # Number of data accesses
system.cpu.dtb_walker_cache.tags.power_state.pwrStateResidencyTicks::UNDEFINED 5274453870800                       # Cumulative time (in ticks) in various power states
system.cpu.icache.demand_hits::.cpu.inst           18                       # number of demand (read+write) hits
system.cpu.icache.demand_hits::.switch_cpus.inst       237467                       # number of demand (read+write) hits
system.cpu.icache.demand_hits::total           237485                       # number of demand (read+write) hits
system.cpu.icache.overall_hits::.cpu.inst           18                       # number of overall hits
system.cpu.icache.overall_hits::.switch_cpus.inst       237467                       # number of overall hits
system.cpu.icache.overall_hits::total          237485                       # number of overall hits
system.cpu.icache.demand_misses::.cpu.inst            3                       # number of demand (read+write) misses
system.cpu.icache.demand_misses::.switch_cpus.inst           66                       # number of demand (read+write) misses
system.cpu.icache.demand_misses::total             69                       # number of demand (read+write) misses
system.cpu.icache.overall_misses::.cpu.inst            3                       # number of overall misses
system.cpu.icache.overall_misses::.switch_cpus.inst           66                       # number of overall misses
system.cpu.icache.overall_misses::total            69                       # number of overall misses
system.cpu.icache.demand_miss_latency::.switch_cpus.inst      4670799                       # number of demand (read+write) miss cycles
system.cpu.icache.demand_miss_latency::total      4670799                       # number of demand (read+write) miss cycles
system.cpu.icache.overall_miss_latency::.switch_cpus.inst      4670799                       # number of overall miss cycles
system.cpu.icache.overall_miss_latency::total      4670799                       # number of overall miss cycles
system.cpu.icache.demand_accesses::.cpu.inst           21                       # number of demand (read+write) accesses
system.cpu.icache.demand_accesses::.switch_cpus.inst       237533                       # number of demand (read+write) accesses
system.cpu.icache.demand_accesses::total       237554                       # number of demand (read+write) accesses
system.cpu.icache.overall_accesses::.cpu.inst           21                       # number of overall (read+write) accesses
system.cpu.icache.overall_accesses::.switch_cpus.inst       237533                       # number of overall (read+write) accesses
system.cpu.icache.overall_accesses::total       237554                       # number of overall (read+write) accesses
system.cpu.icache.demand_miss_rate::.cpu.inst     0.142857                       # miss rate for demand accesses
system.cpu.icache.demand_miss_rate::.switch_cpus.inst     0.000278                       # miss rate for demand accesses
system.cpu.icache.demand_miss_rate::total     0.000290                       # miss rate for demand accesses
system.cpu.icache.overall_miss_rate::.cpu.inst     0.142857                       # miss rate for overall accesses
system.cpu.icache.overall_miss_rate::.switch_cpus.inst     0.000278                       # miss rate for overall accesses
system.cpu.icache.overall_miss_rate::total     0.000290                       # miss rate for overall accesses
system.cpu.icache.demand_avg_miss_latency::.switch_cpus.inst 70769.681818                       # average overall miss latency
system.cpu.icache.demand_avg_miss_latency::total 67692.739130                       # average overall miss latency
system.cpu.icache.overall_avg_miss_latency::.switch_cpus.inst 70769.681818                       # average overall miss latency
system.cpu.icache.overall_avg_miss_latency::total 67692.739130                       # average overall miss latency
system.cpu.icache.blocked_cycles::no_mshrs         2177                       # number of cycles access was blocked
system.cpu.icache.blocked_cycles::no_targets           41                       # number of cycles access was blocked
system.cpu.icache.blocked::no_mshrs                16                       # number of cycles access was blocked
system.cpu.icache.blocked::no_targets               1                       # number of cycles access was blocked
system.cpu.icache.avg_blocked_cycles::no_mshrs   136.062500                       # average number of cycles each access was blocked
system.cpu.icache.avg_blocked_cycles::no_targets           41                       # average number of cycles each access was blocked
system.cpu.icache.demand_mshr_hits::.switch_cpus.inst           22                       # number of demand (read+write) MSHR hits
system.cpu.icache.demand_mshr_hits::total           22                       # number of demand (read+write) MSHR hits
system.cpu.icache.overall_mshr_hits::.switch_cpus.inst           22                       # number of overall MSHR hits
system.cpu.icache.overall_mshr_hits::total           22                       # number of overall MSHR hits
system.cpu.icache.demand_mshr_misses::.switch_cpus.inst           44                       # number of demand (read+write) MSHR misses
system.cpu.icache.demand_mshr_misses::total           44                       # number of demand (read+write) MSHR misses
system.cpu.icache.overall_mshr_misses::.switch_cpus.inst           44                       # number of overall MSHR misses
system.cpu.icache.overall_mshr_misses::total           44                       # number of overall MSHR misses
system.cpu.icache.demand_mshr_miss_latency::.switch_cpus.inst      3492399                       # number of demand (read+write) MSHR miss cycles
system.cpu.icache.demand_mshr_miss_latency::total      3492399                       # number of demand (read+write) MSHR miss cycles
system.cpu.icache.overall_mshr_miss_latency::.switch_cpus.inst      3492399                       # number of overall MSHR miss cycles
system.cpu.icache.overall_mshr_miss_latency::total      3492399                       # number of overall MSHR miss cycles
system.cpu.icache.demand_mshr_miss_rate::.switch_cpus.inst     0.000185                       # mshr miss rate for demand accesses
system.cpu.icache.demand_mshr_miss_rate::total     0.000185                       # mshr miss rate for demand accesses
system.cpu.icache.overall_mshr_miss_rate::.switch_cpus.inst     0.000185                       # mshr miss rate for overall accesses
system.cpu.icache.overall_mshr_miss_rate::total     0.000185                       # mshr miss rate for overall accesses
system.cpu.icache.demand_avg_mshr_miss_latency::.switch_cpus.inst 79372.704545                       # average overall mshr miss latency
system.cpu.icache.demand_avg_mshr_miss_latency::total 79372.704545                       # average overall mshr miss latency
system.cpu.icache.overall_avg_mshr_miss_latency::.switch_cpus.inst 79372.704545                       # average overall mshr miss latency
system.cpu.icache.overall_avg_mshr_miss_latency::total 79372.704545                       # average overall mshr miss latency
system.cpu.icache.replacements                      0                       # number of replacements
system.cpu.icache.ReadReq_hits::.cpu.inst           18                       # number of ReadReq hits
system.cpu.icache.ReadReq_hits::.switch_cpus.inst       237467                       # number of ReadReq hits
system.cpu.icache.ReadReq_hits::total          237485                       # number of ReadReq hits
system.cpu.icache.ReadReq_misses::.cpu.inst            3                       # number of ReadReq misses
system.cpu.icache.ReadReq_misses::.switch_cpus.inst           66                       # number of ReadReq misses
system.cpu.icache.ReadReq_misses::total            69                       # number of ReadReq misses
system.cpu.icache.ReadReq_miss_latency::.switch_cpus.inst      4670799                       # number of ReadReq miss cycles
system.cpu.icache.ReadReq_miss_latency::total      4670799                       # number of ReadReq miss cycles
system.cpu.icache.ReadReq_accesses::.cpu.inst           21                       # number of ReadReq accesses(hits+misses)
system.cpu.icache.ReadReq_accesses::.switch_cpus.inst       237533                       # number of ReadReq accesses(hits+misses)
system.cpu.icache.ReadReq_accesses::total       237554                       # number of ReadReq accesses(hits+misses)
system.cpu.icache.ReadReq_miss_rate::.cpu.inst     0.142857                       # miss rate for ReadReq accesses
system.cpu.icache.ReadReq_miss_rate::.switch_cpus.inst     0.000278                       # miss rate for ReadReq accesses
system.cpu.icache.ReadReq_miss_rate::total     0.000290                       # miss rate for ReadReq accesses
system.cpu.icache.ReadReq_avg_miss_latency::.switch_cpus.inst 70769.681818                       # average ReadReq miss latency
system.cpu.icache.ReadReq_avg_miss_latency::total 67692.739130                       # average ReadReq miss latency
system.cpu.icache.ReadReq_mshr_hits::.switch_cpus.inst           22                       # number of ReadReq MSHR hits
system.cpu.icache.ReadReq_mshr_hits::total           22                       # number of ReadReq MSHR hits
system.cpu.icache.ReadReq_mshr_misses::.switch_cpus.inst           44                       # number of ReadReq MSHR misses
system.cpu.icache.ReadReq_mshr_misses::total           44                       # number of ReadReq MSHR misses
system.cpu.icache.ReadReq_mshr_miss_latency::.switch_cpus.inst      3492399                       # number of ReadReq MSHR miss cycles
system.cpu.icache.ReadReq_mshr_miss_latency::total      3492399                       # number of ReadReq MSHR miss cycles
system.cpu.icache.ReadReq_mshr_miss_rate::.switch_cpus.inst     0.000185                       # mshr miss rate for ReadReq accesses
system.cpu.icache.ReadReq_mshr_miss_rate::total     0.000185                       # mshr miss rate for ReadReq accesses
system.cpu.icache.ReadReq_avg_mshr_miss_latency::.switch_cpus.inst 79372.704545                       # average ReadReq mshr miss latency
system.cpu.icache.ReadReq_avg_mshr_miss_latency::total 79372.704545                       # average ReadReq mshr miss latency
system.cpu.icache.power_state.pwrStateResidencyTicks::UNDEFINED 5274453870800                       # Cumulative time (in ticks) in various power states
system.cpu.icache.tags.tagsinuse            41.212856                       # Cycle average of tags in use
system.cpu.icache.tags.total_refs                   0                       # Total number of references to valid blocks.
system.cpu.icache.tags.sampled_refs                 0                       # Sample count of references to valid blocks.
system.cpu.icache.tags.avg_refs                   nan                       # Average number of references to valid blocks.
system.cpu.icache.tags.warmup_cycle      5273272810000                       # Cycle when the warmup percentage was hit.
system.cpu.icache.tags.occ_blocks::.cpu.inst     2.999990                       # Average occupied blocks per requestor
system.cpu.icache.tags.occ_blocks::.switch_cpus.inst    38.212867                       # Average occupied blocks per requestor
system.cpu.icache.tags.occ_percent::.cpu.inst     0.005859                       # Average percentage of cache occupancy
system.cpu.icache.tags.occ_percent::.switch_cpus.inst     0.074635                       # Average percentage of cache occupancy
system.cpu.icache.tags.occ_percent::total     0.080494                       # Average percentage of cache occupancy
system.cpu.icache.tags.occ_task_id_blocks::1024           47                       # Occupied blocks per task id
system.cpu.icache.tags.age_task_id_blocks_1024::2            7                       # Occupied blocks per task id
system.cpu.icache.tags.age_task_id_blocks_1024::3           40                       # Occupied blocks per task id
system.cpu.icache.tags.occ_task_id_percent::1024     0.091797                       # Percentage of cache occupancy per task id
system.cpu.icache.tags.tag_accesses           1900479                       # Number of tag accesses
system.cpu.icache.tags.data_accesses          1900479                       # Number of data accesses
system.cpu.icache.tags.power_state.pwrStateResidencyTicks::UNDEFINED 5274453870800                       # Cumulative time (in ticks) in various power states
system.cpu.itb.instHits                             0                       # ITB inst hits
system.cpu.itb.instMisses                           0                       # ITB inst misses
system.cpu.itb.readHits                             0                       # DTB read hits
system.cpu.itb.readMisses                           0                       # DTB read misses
system.cpu.itb.writeHits                            0                       # DTB write hits
system.cpu.itb.writeMisses                          0                       # DTB write misses
system.cpu.itb.inserts                              0                       # Number of times an entry is inserted into the TLB
system.cpu.itb.flushTlb                             2                       # Number of times complete TLB was flushed
system.cpu.itb.flushTlbMva                          0                       # Number of times TLB was flushed by MVA
system.cpu.itb.flushTlbMvaAsid                      0                       # Number of times TLB was flushed by MVA & ASID
system.cpu.itb.flushTlbAsid                         0                       # Number of times TLB was flushed by ASID
system.cpu.itb.flushedEntries                       0                       # Number of entries that have been flushed from TLB
system.cpu.itb.alignFaults                          0                       # Number of TLB faults due to alignment restrictions
system.cpu.itb.prefetchFaults                       0                       # Number of TLB faults due to prefetch
system.cpu.itb.domainFaults                         0                       # Number of TLB faults due to domain restrictions
system.cpu.itb.permsFaults                          0                       # Number of TLB faults due to permissions restrictions
system.cpu.itb.readAccesses                         0                       # DTB read accesses
system.cpu.itb.writeAccesses                        0                       # DTB write accesses
system.cpu.itb.instAccesses                         0                       # ITB inst accesses
system.cpu.itb.hits                                 0                       # Total TLB (inst and data) hits
system.cpu.itb.misses                               0                       # Total TLB (inst and data) misses
system.cpu.itb.accesses                             0                       # Total TLB (inst and data) accesses
system.cpu.itb.stage2_mmu.stage2_tlb.instHits            0                       # ITB inst hits
system.cpu.itb.stage2_mmu.stage2_tlb.instMisses            0                       # ITB inst misses
system.cpu.itb.stage2_mmu.stage2_tlb.readHits            0                       # DTB read hits
system.cpu.itb.stage2_mmu.stage2_tlb.readMisses            0                       # DTB read misses
system.cpu.itb.stage2_mmu.stage2_tlb.writeHits            0                       # DTB write hits
system.cpu.itb.stage2_mmu.stage2_tlb.writeMisses            0                       # DTB write misses
system.cpu.itb.stage2_mmu.stage2_tlb.inserts            0                       # Number of times an entry is inserted into the TLB
system.cpu.itb.stage2_mmu.stage2_tlb.flushTlb            0                       # Number of times complete TLB was flushed
system.cpu.itb.stage2_mmu.stage2_tlb.flushTlbMva            0                       # Number of times TLB was flushed by MVA
system.cpu.itb.stage2_mmu.stage2_tlb.flushTlbMvaAsid            0                       # Number of times TLB was flushed by MVA & ASID
system.cpu.itb.stage2_mmu.stage2_tlb.flushTlbAsid            0                       # Number of times TLB was flushed by ASID
system.cpu.itb.stage2_mmu.stage2_tlb.flushedEntries            0                       # Number of entries that have been flushed from TLB
system.cpu.itb.stage2_mmu.stage2_tlb.alignFaults            0                       # Number of TLB faults due to alignment restrictions
system.cpu.itb.stage2_mmu.stage2_tlb.prefetchFaults            0                       # Number of TLB faults due to prefetch
system.cpu.itb.stage2_mmu.stage2_tlb.domainFaults            0                       # Number of TLB faults due to domain restrictions
system.cpu.itb.stage2_mmu.stage2_tlb.permsFaults            0                       # Number of TLB faults due to permissions restrictions
system.cpu.itb.stage2_mmu.stage2_tlb.readAccesses            0                       # DTB read accesses
system.cpu.itb.stage2_mmu.stage2_tlb.writeAccesses            0                       # DTB write accesses
system.cpu.itb.stage2_mmu.stage2_tlb.instAccesses            0                       # ITB inst accesses
system.cpu.itb.stage2_mmu.stage2_tlb.hits            0                       # Total TLB (inst and data) hits
system.cpu.itb.stage2_mmu.stage2_tlb.misses            0                       # Total TLB (inst and data) misses
system.cpu.itb.stage2_mmu.stage2_tlb.accesses            0                       # Total TLB (inst and data) accesses
system.cpu.itb.stage2_mmu.stage2_tlb.walker.walks            0                       # Table walker walks requested
system.cpu.itb.stage2_mmu.stage2_tlb.walker.requestOrigin_Requested::Data            0                       # Table walker requests started/completed, data/inst
system.cpu.itb.stage2_mmu.stage2_tlb.walker.requestOrigin_Requested::Inst            0                       # Table walker requests started/completed, data/inst
system.cpu.itb.stage2_mmu.stage2_tlb.walker.requestOrigin_Requested::total            0                       # Table walker requests started/completed, data/inst
system.cpu.itb.stage2_mmu.stage2_tlb.walker.requestOrigin_Completed::Data            0                       # Table walker requests started/completed, data/inst
system.cpu.itb.stage2_mmu.stage2_tlb.walker.requestOrigin_Completed::Inst            0                       # Table walker requests started/completed, data/inst
system.cpu.itb.stage2_mmu.stage2_tlb.walker.requestOrigin_Completed::total            0                       # Table walker requests started/completed, data/inst
system.cpu.itb.stage2_mmu.stage2_tlb.walker.requestOrigin::total            0                       # Table walker requests started/completed, data/inst
system.cpu.itb.stage2_mmu.stage2_tlb.walker.power_state.pwrStateResidencyTicks::UNDEFINED 5274453870800                       # Cumulative time (in ticks) in various power states
system.cpu.itb.walker.walks                         0                       # Table walker walks requested
system.cpu.itb.walker.requestOrigin_Requested::Data            0                       # Table walker requests started/completed, data/inst
system.cpu.itb.walker.requestOrigin_Requested::Inst            0                       # Table walker requests started/completed, data/inst
system.cpu.itb.walker.requestOrigin_Requested::total            0                       # Table walker requests started/completed, data/inst
system.cpu.itb.walker.requestOrigin_Completed::Data            0                       # Table walker requests started/completed, data/inst
system.cpu.itb.walker.requestOrigin_Completed::Inst            0                       # Table walker requests started/completed, data/inst
[...]
system.switch_cpus.dtb.walker.requestOrigin_Requested::total            0                       # Table walker requests started/completed, data/inst
system.switch_cpus.dtb.walker.requestOrigin_Completed::Data            0                       # Table walker requests started/completed, data/inst
system.switch_cpus.dtb.walker.requestOrigin_Completed::Inst            0                       # Table walker requests started/completed, data/inst
system.switch_cpus.dtb.walker.requestOrigin_Completed::total            0                       # Table walker requests started/completed, data/inst
system.switch_cpus.dtb.walker.requestOrigin::total            0                       # Table walker requests started/completed, data/inst
system.switch_cpus.dtb.walker.power_state.pwrStateResidencyTicks::UNDEFINED  11461500800                       # Cumulative time (in ticks) in various power states
system.switch_cpus.fetch.icacheStallCycles        49924                       # Number of cycles fetch is stalled on an Icache miss
system.switch_cpus.fetch.insts               19475896                       # Number of instructions fetch has processed
system.switch_cpus.fetch.branches             3240938                       # Number of branches that fetch encountered
system.switch_cpus.fetch.predictedBranches      1402381                       # Number of branches that fetch has predicted taken
system.switch_cpus.fetch.cycles              28535573                       # Number of cycles fetch has run and was not squashing or blocked
system.switch_cpus.fetch.squashCycles          136510                       # Number of cycles fetch has spent squashing
system.switch_cpus.fetch.cacheLines           2526889                       # Number of cache lines fetched
system.switch_cpus.fetch.nisnDist::samples     28653752                       # Number of instructions fetched each cycle (Total)
system.switch_cpus.fetch.nisnDist::mean      0.705107                       # Number of instructions fetched each cycle (Total)
system.switch_cpus.fetch.nisnDist::stdev     1.949042                       # Number of instructions fetched each cycle (Total)
system.switch_cpus.fetch.nisnDist::underflows            0      0.00%      0.00% # Number of instructions fetched each cycle (Total)
system.switch_cpus.fetch.nisnDist::0         24707964     86.23%     86.23% # Number of instructions fetched each cycle (Total)
system.switch_cpus.fetch.nisnDist::1           130979      0.46%     86.69% # Number of instructions fetched each cycle (Total)
system.switch_cpus.fetch.nisnDist::2           306017      1.07%     87.75% # Number of instructions fetched each cycle (Total)
system.switch_cpus.fetch.nisnDist::3           220324      0.77%     88.52% # Number of instructions fetched each cycle (Total)
system.switch_cpus.fetch.nisnDist::4          1815096      6.33%     94.86% # Number of instructions fetched each cycle (Total)
system.switch_cpus.fetch.nisnDist::5            15742      0.05%     94.91% # Number of instructions fetched each cycle (Total)
system.switch_cpus.fetch.nisnDist::6            18010      0.06%     94.98% # Number of instructions fetched each cycle (Total)
system.switch_cpus.fetch.nisnDist::7           164151      0.57%     95.55% # Number of instructions fetched each cycle (Total)
system.switch_cpus.fetch.nisnDist::8          1275469      4.45%    100.00% # Number of instructions fetched each cycle (Total)
system.switch_cpus.fetch.nisnDist::overflows            0      0.00%    100.00% # Number of instructions fetched each cycle (Total)
system.switch_cpus.fetch.nisnDist::min_value            0                       # Number of instructions fetched each cycle (Total)
system.switch_cpus.fetch.nisnDist::max_value            8                       # Number of instructions fetched each cycle (Total)
system.switch_cpus.fetch.nisnDist::total     28653752                       # Number of instructions fetched each cycle (Total)
system.switch_cpus.fetch.branchRate          0.113107                       # Number of branch fetches per cycle
system.switch_cpus.fetch.rate                0.679698                       # Number of inst fetches per cycle
system.switch_cpus.itb.instHits                     0                       # ITB inst hits
system.switch_cpus.itb.instMisses                   0                       # ITB inst misses
system.switch_cpus.itb.readHits                     0                       # DTB read hits
system.switch_cpus.itb.readMisses                   0                       # DTB read misses
system.switch_cpus.itb.writeHits                    0                       # DTB write hits
system.switch_cpus.itb.writeMisses                  0                       # DTB write misses
system.switch_cpus.itb.inserts                      0                       # Number of times an entry is inserted into the TLB
system.switch_cpus.itb.flushTlb                     0                       # Number of times complete TLB was flushed
system.switch_cpus.itb.flushTlbMva                  0                       # Number of times TLB was flushed by MVA
system.switch_cpus.itb.flushTlbMvaAsid              0                       # Number of times TLB was flushed by MVA & ASID
system.switch_cpus.itb.flushTlbAsid                 0                       # Number of times TLB was flushed by ASID
system.switch_cpus.itb.flushedEntries               0                       # Number of entries that have been flushed from TLB
system.switch_cpus.itb.alignFaults                  0                       # Number of TLB faults due to alignment restrictions
system.switch_cpus.itb.prefetchFaults               0                       # Number of TLB faults due to prefetch
system.switch_cpus.itb.domainFaults                 0                       # Number of TLB faults due to domain restrictions
system.switch_cpus.itb.permsFaults                  0                       # Number of TLB faults due to permissions restrictions
system.switch_cpus.itb.readAccesses                 0                       # DTB read accesses
system.switch_cpus.itb.writeAccesses                0                       # DTB write accesses
system.switch_cpus.itb.instAccesses                 0                       # ITB inst accesses
system.switch_cpus.itb.hits                         0                       # Total TLB (inst and data) hits
system.switch_cpus.itb.misses                       0                       # Total TLB (inst and data) misses
system.switch_cpus.itb.accesses                     0                       # Total TLB (inst and data) accesses
system.switch_cpus.itb.stage2_mmu.stage2_tlb.instHits            0                       # ITB inst hits
system.switch_cpus.itb.stage2_mmu.stage2_tlb.instMisses            0                       # ITB inst misses
system.switch_cpus.itb.stage2_mmu.stage2_tlb.readHits            0                       # DTB read hits
system.switch_cpus.itb.stage2_mmu.stage2_tlb.readMisses            0                       # DTB read misses
system.switch_cpus.itb.stage2_mmu.stage2_tlb.writeHits            0                       # DTB write hits
system.switch_cpus.itb.stage2_mmu.stage2_tlb.writeMisses            0                       # DTB write misses
system.switch_cpus.itb.stage2_mmu.stage2_tlb.inserts            0                       # Number of times an entry is inserted into the TLB
system.switch_cpus.itb.stage2_mmu.stage2_tlb.flushTlb            0                       # Number of times complete TLB was flushed
system.switch_cpus.itb.stage2_mmu.stage2_tlb.flushTlbMva            0                       # Number of times TLB was flushed by MVA
system.switch_cpus.itb.stage2_mmu.stage2_tlb.flushTlbMvaAsid            0                       # Number of times TLB was flushed by MVA & ASID
system.switch_cpus.itb.stage2_mmu.stage2_tlb.flushTlbAsid            0                       # Number of times TLB was flushed by ASID
system.switch_cpus.itb.stage2_mmu.stage2_tlb.flushedEntries            0                       # Number of entries that have been flushed from TLB
system.switch_cpus.itb.stage2_mmu.stage2_tlb.alignFaults            0                       # Number of TLB faults due to alignment restrictions
system.switch_cpus.itb.stage2_mmu.stage2_tlb.prefetchFaults            0                       # Number of TLB faults due to prefetch
system.switch_cpus.itb.stage2_mmu.stage2_tlb.domainFaults            0                       # Number of TLB faults due to domain restrictions
system.switch_cpus.itb.stage2_mmu.stage2_tlb.permsFaults            0                       # Number of TLB faults due to permissions restrictions
system.switch_cpus.itb.stage2_mmu.stage2_tlb.readAccesses            0                       # DTB read accesses
system.switch_cpus.itb.stage2_mmu.stage2_tlb.writeAccesses            0                       # DTB write accesses
system.switch_cpus.itb.stage2_mmu.stage2_tlb.instAccesses            0                       # ITB inst accesses
system.switch_cpus.itb.stage2_mmu.stage2_tlb.hits            0                       # Total TLB (inst and data) hits
system.switch_cpus.itb.stage2_mmu.stage2_tlb.misses            0                       # Total TLB (inst and data) misses
system.switch_cpus.itb.stage2_mmu.stage2_tlb.accesses            0                       # Total TLB (inst and data) accesses
system.switch_cpus.itb.stage2_mmu.stage2_tlb.walker.walks            0                       # Table walker walks requested
system.switch_cpus.itb.stage2_mmu.stage2_tlb.walker.requestOrigin_Requested::Data            0                       # Table walker requests started/completed, data/inst
system.switch_cpus.itb.stage2_mmu.stage2_tlb.walker.requestOrigin_Requested::Inst            0                       # Table walker requests started/completed, data/inst
system.switch_cpus.itb.stage2_mmu.stage2_tlb.walker.requestOrigin_Requested::total            0                       # Table walker requests started/completed, data/inst
system.switch_cpus.itb.stage2_mmu.stage2_tlb.walker.requestOrigin_Completed::Data            0                       # Table walker requests started/completed, data/inst
system.switch_cpus.itb.stage2_mmu.stage2_tlb.walker.requestOrigin_Completed::Inst            0                       # Table walker requests started/completed, data/inst
system.switch_cpus.itb.stage2_mmu.stage2_tlb.walker.requestOrigin_Completed::total            0                       # Table walker requests started/completed, data/inst
system.switch_cpus.itb.stage2_mmu.stage2_tlb.walker.requestOrigin::total            0                       # Table walker requests started/completed, data/inst
system.switch_cpus.itb.stage2_mmu.stage2_tlb.walker.power_state.pwrStateResidencyTicks::UNDEFINED  11461500800                       # Cumulative time (in ticks) in various power states
system.switch_cpus.itb.walker.walks                 0                       # Table walker walks requested
system.switch_cpus.itb.walker.requestOrigin_Requested::Data            0                       # Table walker requests started/completed, data/inst
system.switch_cpus.itb.walker.requestOrigin_Requested::Inst            0                       # Table walker requests started/completed, data/inst
system.switch_cpus.itb.walker.requestOrigin_Requested::total            0                       # Table walker requests started/completed, data/inst
system.switch_cpus.itb.walker.requestOrigin_Completed::Data            0                       # Table walker requests started/completed, data/inst
system.switch_cpus.itb.walker.requestOrigin_Completed::Inst            0                       # Table walker requests started/completed, data/inst
system.switch_cpus.itb.walker.requestOrigin_Completed::total            0                       # Table walker requests started/completed, data/inst
system.switch_cpus.itb.walker.requestOrigin::total            0                       # Table walker requests started/completed, data/inst
system.switch_cpus.itb.walker.power_state.pwrStateResidencyTicks::UNDEFINED  11461500800                       # Cumulative time (in ticks) in various power states
system.switch_cpus.lsq0.forwLoads               85762                       # Number of loads that had data forwarded from stores
system.switch_cpus.lsq0.squashedLoads         1973935                       # Number of loads squashed
system.switch_cpus.lsq0.ignoredResponses           81                       # Number of memory responses ignored because the instruction is squashed
system.switch_cpus.lsq0.memOrderViolation           95                       # Number of memory ordering violations
system.switch_cpus.lsq0.squashedStores         679383                       # Number of stores squashed
system.switch_cpus.lsq0.rescheduledLoads          101                       # Number of loads that were rescheduled
system.switch_cpus.lsq0.blockedByCache         490496                       # Number of times an access to memory failed due to the cache being blocked
system.switch_cpus.power_state.pwrStateResidencyTicks::OFF  11461500800                       # Cumulative time (in ticks) in various power states
system.switch_cpus.rename.squashCycles          68255                       # Number of cycles rename is squashing
system.switch_cpus.rename.idleCycles          1188943                       # Number of cycles rename is idle
system.switch_cpus.rename.blockCycles        23557611                       # Number of cycles rename is blocking
system.switch_cpus.rename.serializeStallCycles        85099                       # count of cycles rename stalledfor serializing inst
system.switch_cpus.rename.runCycles           1925079                       # Number of cycles rename is running
system.switch_cpus.rename.unblockCycles       1828765                       # Number of cycles rename is unblocking
system.switch_cpus.rename.renamedInsts       16524073                       # Number of instructions processed by rename
system.switch_cpus.rename.squashedInsts         85886                       # Number of squashed instructions processed by rename
system.switch_cpus.rename.ROBFullEvents         10801                       # Number of times rename has blocked due to ROB full
system.switch_cpus.rename.IQFullEvents          71157                       # Number of times rename has blocked due to IQ full
system.switch_cpus.rename.SQFullEvents         306112                       # Number of times rename has blocked due to SQ full
system.switch_cpus.rename.fullRegistersEvents      1405022                       # Number of times there has been no free registers
system.switch_cpus.rename.renamedOperands     17467215                       # Number of destination operands rename has renamed
system.switch_cpus.rename.lookups            25966737                       # Number of register rename lookups that rename has made
system.switch_cpus.rename.intLookups         21048968                       # Number of integer rename lookups
system.switch_cpus.rename.committedMaps      11169309                       # Number of HB maps that are committed
system.switch_cpus.rename.undoneMaps          6297927                       # Number of HB maps that are undone due to squashing
system.switch_cpus.rename.serializing             212                       # count of serializing insts renamed
system.switch_cpus.rename.tempSerializing            0                       # count of temporary serializing insts renamed
system.switch_cpus.rename.skidInsts           4556113                       # count of insts added to the skid buffer
system.switch_cpus.rob.reads                 41385134                       # The number of ROB reads
system.switch_cpus.rob.writes                34217003                       # The number of ROB writes
system.switch_cpus.thread_0.numInsts          9999998                       # Number of Instructions committed
system.switch_cpus.thread_0.numOps           10303171                       # Number of Ops committed
system.switch_cpus.thread_0.numMemRefs              0                       # Number of Memory References
system.tol2bus.trans_dist::ReadResp           1168628                       # Transaction distribution
system.tol2bus.trans_dist::WritebackDirty        79030                       # Transaction distribution
system.tol2bus.trans_dist::WritebackClean      1150406                       # Transaction distribution
system.tol2bus.trans_dist::CleanEvict          637196                       # Transaction distribution
system.tol2bus.trans_dist::HardPFReq           542734                       # Transaction distribution
system.tol2bus.trans_dist::ReadExReq            23953                       # Transaction distribution
system.tol2bus.trans_dist::ReadExResp           23952                       # Transaction distribution
system.tol2bus.trans_dist::ReadSharedReq      1168627                       # Transaction distribution
system.tol2bus.pkt_count_system.cpu.dcache.mem_side_port::system.l2.cpu_side_port      3577740                       # Packet count per connected requestor and responder (bytes)
system.tol2bus.pkt_count::total               3577740                       # Packet count per connected requestor and responder (bytes)
system.tol2bus.pkt_size_system.cpu.dcache.mem_side_port::system.l2.cpu_side_port    305300480                       # Cumulative packet size per connected requestor and responder (bytes)
system.tol2bus.pkt_size::total              305300480                       # Cumulative packet size per connected requestor and responder (bytes)
system.tol2bus.snoops                         1216786                       # Total snoops (count)
system.tol2bus.snoopTraffic                   4717568                       # Total snoop traffic (bytes)
system.tol2bus.snoop_fanout::samples          2409367                       # Request fanout histogram
system.tol2bus.snoop_fanout::mean            0.001453                       # Request fanout histogram
system.tol2bus.snoop_fanout::stdev           0.038092                       # Request fanout histogram
system.tol2bus.snoop_fanout::underflows             0      0.00%      0.00% # Request fanout histogram
system.tol2bus.snoop_fanout::0                2405866     99.85%     99.85% # Request fanout histogram
system.tol2bus.snoop_fanout::1                   3501      0.15%    100.00% # Request fanout histogram
system.tol2bus.snoop_fanout::2                      0      0.00%    100.00% # Request fanout histogram
system.tol2bus.snoop_fanout::3                      0      0.00%    100.00% # Request fanout histogram
system.tol2bus.snoop_fanout::4                      0      0.00%    100.00% # Request fanout histogram
system.tol2bus.snoop_fanout::overflows              0      0.00%    100.00% # Request fanout histogram
system.tol2bus.snoop_fanout::min_value              0                       # Request fanout histogram
system.tol2bus.snoop_fanout::max_value              1                       # Request fanout histogram
system.tol2bus.snoop_fanout::total            2409367                       # Request fanout histogram
system.tol2bus.power_state.pwrStateResidencyTicks::UNDEFINED  11461500800                       # Cumulative time (in ticks) in various power states
system.tol2bus.reqLayer0.occupancy         2862198191                       # Layer occupancy (ticks)
system.tol2bus.reqLayer0.utilization             25.0                       # Layer utilization (%)
system.tol2bus.respLayer1.occupancy        2385160000                       # Layer occupancy (ticks)
system.tol2bus.respLayer1.utilization            20.8                       # Layer utilization (%)
system.voltage_domain.voltage                       1                       # Voltage in Volts

---------- End Simulation Statistics   ----------
