
---------- Begin Simulation Statistics ----------
final_tick                               1348068933200                       # Number of ticks from beginning of simulation (restored from checkpoints and never reset)
host_inst_rate                                 204106                       # Simulator instruction rate (inst/s)
host_mem_usage                               16985488                       # Number of bytes of host memory used
host_op_rate                                   204102                       # Simulator op (including micro ops) rate (op/s)
host_seconds                                     4.90                       # Real time elapsed on the host
host_tick_rate                               50184068                       # Simulator tick rate (ticks/s)
sim_freq                                 1000000000000                       # Frequency of simulated ticks
sim_insts                                     1000025                       # Number of instructions simulated
sim_ops                                       1000025                       # Number of ops (including micro ops) simulated
sim_seconds                                  0.000246                       # Number of seconds simulated
sim_ticks                                   245885200                       # Number of ticks simulated
system.cpu.Branches                                 4                       # Number of branches fetched
system.cpu.committedInsts                          25                       # Number of instructions committed
system.cpu.committedOps                            25                       # Number of ops (including micro ops) committed
system.cpu.idle_fraction                            0                       # Percentage of idle cycles
system.cpu.not_idle_fraction                        1                       # Percentage of non-idle cycles
system.cpu.numCycles                               25                       # number of cpu cycles simulated
system.cpu.numWorkItemsCompleted                    0                       # number of work items this cpu completed
system.cpu.numWorkItemsStarted                      0                       # number of work items this cpu started
system.cpu.num_busy_cycles                         25                       # Number of busy cycles
system.cpu.num_cc_register_reads                   12                       # number of times the CC registers were read
system.cpu.num_cc_register_writes                  12                       # number of times the CC registers were written
system.cpu.num_conditional_control_insts            4                       # number of instructions that are conditional controls
system.cpu.num_fp_alu_accesses                      0                       # Number of float alu accesses
system.cpu.num_fp_insts                             0                       # number of float instructions
system.cpu.num_fp_register_reads                    0                       # number of times the floating registers were read
system.cpu.num_fp_register_writes                   0                       # number of times the floating registers were written
system.cpu.num_func_calls                           0                       # number of times a function call or return occured
system.cpu.num_idle_cycles                          0                       # Number of idle cycles
system.cpu.num_int_alu_accesses                    21                       # Number of integer alu accesses
system.cpu.num_int_insts                           21                       # number of integer instructions
system.cpu.num_int_register_reads                  27                       # number of times the integer registers were read
system.cpu.num_int_register_writes                 18                       # number of times the integer registers were written
system.cpu.num_load_insts                          11                       # Number of load instructions
system.cpu.num_mem_refs                            14                       # number of memory refs
system.cpu.num_store_insts                          3                       # Number of store instructions
system.cpu.num_vec_alu_accesses                     0                       # Number of vector alu accesses
system.cpu.num_vec_insts                            0                       # number of vector instructions
system.cpu.num_vec_register_reads                   0                       # number of times the vector registers were read
system.cpu.num_vec_register_writes                  0                       # number of times the vector registers were written
system.cpu.op_class::No_OpClass                     0      0.00%      0.00% # Class of executed instruction
system.cpu.op_class::IntAlu                        11     44.00%     44.00% # Class of executed instruction
system.cpu.op_class::IntMult                        0      0.00%     44.00% # Class of executed instruction
system.cpu.op_class::IntDiv                         0      0.00%     44.00% # Class of executed instruction
system.cpu.op_class::FloatAdd                       0      0.00%     44.00% # Class of executed instruction
system.cpu.op_class::FloatCmp                       0      0.00%     44.00% # Class of executed instruction
system.cpu.op_class::FloatCvt                       0      0.00%     44.00% # Class of executed instruction
system.cpu.op_class::FloatMult                      0      0.00%     44.00% # Class of executed instruction
system.cpu.op_class::FloatMultAcc                   0      0.00%     44.00% # Class of executed instruction
system.cpu.op_class::FloatDiv                       0      0.00%     44.00% # Class of executed instruction
system.cpu.op_class::FloatMisc                      0      0.00%     44.00% # Class of executed instruction
system.cpu.op_class::FloatSqrt                      0      0.00%     44.00% # Class of executed instruction
system.cpu.op_class::SimdAdd                        0      0.00%     44.00% # Class of executed instruction
system.cpu.op_class::SimdAddAcc                     0      0.00%     44.00% # Class of executed instruction
system.cpu.op_class::SimdAlu                        0      0.00%     44.00% # Class of executed instruction
system.cpu.op_class::SimdCmp                        0      0.00%     44.00% # Class of executed instruction
system.cpu.op_class::SimdCvt                        0      0.00%     44.00% # Class of executed instruction
system.cpu.op_class::SimdMisc                       0      0.00%     44.00% # Class of executed instruction
system.cpu.op_class::SimdMult                       0      0.00%     44.00% # Class of executed instruction
system.cpu.op_class::SimdMultAcc                    0      0.00%     44.00% # Class of executed instruction
system.cpu.op_class::SimdShift                      0      0.00%     44.00% # Class of executed instruction
system.cpu.op_class::SimdShiftAcc                   0      0.00%     44.00% # Class of executed instruction
system.cpu.op_class::SimdDiv                        0      0.00%     44.00% # Class of executed instruction
system.cpu.op_class::SimdSqrt                       0      0.00%     44.00% # Class of executed instruction
system.cpu.op_class::SimdFloatAdd                   0      0.00%     44.00% # Class of executed instruction
system.cpu.op_class::SimdFloatAlu                   0      0.00%     44.00% # Class of executed instruction
system.cpu.op_class::SimdFloatCmp                   0      0.00%     44.00% # Class of executed instruction
system.cpu.op_class::SimdFloatCvt                   0      0.00%     44.00% # Class of executed instruction
system.cpu.op_class::SimdFloatDiv                   0      0.00%     44.00% # Class of executed instruction
system.cpu.op_class::SimdFloatMisc                  0      0.00%     44.00% # Class of executed instruction
system.cpu.op_class::SimdFloatMult                  0      0.00%     44.00% # Class of executed instruction
system.cpu.op_class::SimdFloatMultAcc               0      0.00%     44.00% # Class of executed instruction
system.cpu.op_class::SimdFloatSqrt                  0      0.00%     44.00% # Class of executed instruction
system.cpu.op_class::SimdReduceAdd                  0      0.00%     44.00% # Class of executed instruction
system.cpu.op_class::SimdReduceAlu                  0      0.00%     44.00% # Class of executed instruction
system.cpu.op_class::SimdReduceCmp                  0      0.00%     44.00% # Class of executed instruction
system.cpu.op_class::SimdFloatReduceAdd             0      0.00%     44.00% # Class of executed instruction
system.cpu.op_class::SimdFloatReduceCmp             0      0.00%     44.00% # Class of executed instruction
system.cpu.op_class::SimdAes                        0      0.00%     44.00% # Class of executed instruction
system.cpu.op_class::SimdAesMix                     0      0.00%     44.00% # Class of executed instruction
system.cpu.op_class::SimdSha1Hash                   0      0.00%     44.00% # Class of executed instruction
system.cpu.op_class::SimdSha1Hash2                  0      0.00%     44.00% # Class of executed instruction
system.cpu.op_class::SimdSha256Hash                 0      0.00%     44.00% # Class of executed instruction
system.cpu.op_class::SimdSha256Hash2                0      0.00%     44.00% # Class of executed instruction
system.cpu.op_class::SimdShaSigma2                  0      0.00%     44.00% # Class of executed instruction
system.cpu.op_class::SimdShaSigma3                  0      0.00%     44.00% # Class of executed instruction
system.cpu.op_class::SimdPredAlu                    0      0.00%     44.00% # Class of executed instruction
system.cpu.op_class::MemRead                       11     44.00%     88.00% # Class of executed instruction
system.cpu.op_class::MemWrite                       3     12.00%    100.00% # Class of executed instruction
system.cpu.op_class::FloatMemRead                   0      0.00%    100.00% # Class of executed instruction
system.cpu.op_class::FloatMemWrite                  0      0.00%    100.00% # Class of executed instruction
system.cpu.op_class::IprAccess                      0      0.00%    100.00% # Class of executed instruction
system.cpu.op_class::InstPrefetch                   0      0.00%    100.00% # Class of executed instruction
system.cpu.op_class::total                         25                       # Class of executed instruction
system.cpu.workload.numSyscalls                     0                       # Number of system calls
system.membus.snoop_filter.hit_multi_requests            0                       # Number of requests hitting in the snoop filter with multiple (>1) holders of the requested data.
system.membus.snoop_filter.hit_multi_snoops            0                       # Number of snoops hitting in the snoop filter with multiple (>1) holders of the requested data.
system.membus.snoop_filter.hit_single_requests            0                       # Number of requests hitting in the snoop filter with a single holder of the requested data.
system.membus.snoop_filter.hit_single_snoops            0                       # Number of snoops hitting in the snoop filter with a single holder of the requested data.
system.membus.snoop_filter.tot_requests          3358                       # Total number of requests made to the snoop filter.
system.membus.snoop_filter.tot_snoops               0                       # Total number of snoops made to the snoop filter.
system.switch_cpus.cc_regfile_reads            479139                       # number of cc regfile reads
system.switch_cpus.cc_regfile_writes           479472                       # number of cc regfile writes
system.switch_cpus.committedInsts             1000000                       # Number of Instructions Simulated
system.switch_cpus.committedOps               1000000                       # Number of Ops (including micro ops) Simulated
system.switch_cpus.cpi                       0.614688                       # CPI: Cycles Per Instruction
system.switch_cpus.cpi_total                 0.614688                       # CPI: Total CPI of All Threads
system.switch_cpus.idleCycles                     451                       # Total number of cycles that the CPU has spent unscheduled due to idling
system.switch_cpus.iew.branchMispredicts          598                       # Number of branch mispredicts detected at execute
system.switch_cpus.iew.exec_branches           159918                       # Number of branches executed
system.switch_cpus.iew.exec_nop                    52                       # number of nop insts executed
system.switch_cpus.iew.exec_rate             1.648763                       # Inst execution rate
system.switch_cpus.iew.exec_refs               484840                       # number of memory reference insts executed
system.switch_cpus.iew.exec_stores              46398                       # Number of stores executed
system.switch_cpus.iew.exec_swp                     0                       # number of swp insts executed
system.switch_cpus.iew.iewBlockCycles           10998                       # Number of cycles IEW is blocking
system.switch_cpus.iew.iewDispLoadInsts        450548                       # Number of dispatched load instructions
system.switch_cpus.iew.iewDispNonSpecInsts            0                       # Number of dispatched non-speculative instructions
system.switch_cpus.iew.iewDispSquashedInsts            0                       # Number of squashed instructions skipped by dispatch
system.switch_cpus.iew.iewDispStoreInsts        48695                       # Number of dispatched store instructions
system.switch_cpus.iew.iewDispatchedInsts      1044713                       # Number of instructions dispatched to IQ
system.switch_cpus.iew.iewExecLoadInsts        438442                       # Number of load instructions executed
system.switch_cpus.iew.iewExecSquashedInsts         1335                       # Number of squashed instructions skipped in execute
system.switch_cpus.iew.iewExecutedInsts       1013475                       # Number of executed instructions
system.switch_cpus.iew.iewIQFullEvents              2                       # Number of times the IQ has become full, causing a stall
system.switch_cpus.iew.iewIdleCycles                0                       # Number of cycles IEW is idle
system.switch_cpus.iew.iewLSQFullEvents             0                       # Number of times the LSQ has become full, causing a stall
system.switch_cpus.iew.iewSquashCycles            618                       # Number of cycles IEW is squashing
system.switch_cpus.iew.iewUnblockCycles             6                       # Number of cycles IEW is unblocking
system.switch_cpus.iew.memOrderViolationEvents           41                       # Number of memory order violations
system.switch_cpus.iew.predictedNotTakenIncorrect          170                       # Number of branches that were predicted not taken incorrectly
system.switch_cpus.iew.predictedTakenIncorrect          428                       # Number of branches that were predicted taken incorrectly
system.switch_cpus.iew.wb_consumers           1124016                       # num instructions consuming a value
system.switch_cpus.iew.wb_count               1012193                       # cumulative count of insts written-back
system.switch_cpus.iew.wb_fanout             0.715724                       # average fanout of values written-back
system.switch_cpus.iew.wb_producers            804485                       # num instructions producing a value
system.switch_cpus.iew.wb_rate               1.646678                       # insts written-back per cycle
system.switch_cpus.iew.wb_sent                1012581                       # cumulative count of insts sent to commit
system.switch_cpus.int_regfile_reads          1044981                       # number of integer regfile reads
system.switch_cpus.int_regfile_writes          806373                       # number of integer regfile writes
system.switch_cpus.ipc                       1.626842                       # IPC: Instructions Per Cycle
system.switch_cpus.ipc_total                 1.626842                       # IPC: Total IPC of All Threads
system.switch_cpus.iq.FU_type_0::No_OpClass            0      0.00%      0.00% # Type of FU issued
system.switch_cpus.iq.FU_type_0::IntAlu        528709     52.10%     52.10% # Type of FU issued
system.switch_cpus.iq.FU_type_0::IntMult            0      0.00%     52.10% # Type of FU issued
system.switch_cpus.iq.FU_type_0::IntDiv             0      0.00%     52.10% # Type of FU issued
system.switch_cpus.iq.FU_type_0::FloatAdd            0      0.00%     52.10% # Type of FU issued
system.switch_cpus.iq.FU_type_0::FloatCmp            0      0.00%     52.10% # Type of FU issued
system.switch_cpus.iq.FU_type_0::FloatCvt            0      0.00%     52.10% # Type of FU issued
system.switch_cpus.iq.FU_type_0::FloatMult            0      0.00%     52.10% # Type of FU issued
system.switch_cpus.iq.FU_type_0::FloatMultAcc            0      0.00%     52.10% # Type of FU issued
system.switch_cpus.iq.FU_type_0::FloatDiv            0      0.00%     52.10% # Type of FU issued
system.switch_cpus.iq.FU_type_0::FloatMisc            0      0.00%     52.10% # Type of FU issued
system.switch_cpus.iq.FU_type_0::FloatSqrt            0      0.00%     52.10% # Type of FU issued
system.switch_cpus.iq.FU_type_0::SimdAdd            0      0.00%     52.10% # Type of FU issued
system.switch_cpus.iq.FU_type_0::SimdAddAcc            0      0.00%     52.10% # Type of FU issued
system.switch_cpus.iq.FU_type_0::SimdAlu            0      0.00%     52.10% # Type of FU issued
system.switch_cpus.iq.FU_type_0::SimdCmp            0      0.00%     52.10% # Type of FU issued
system.switch_cpus.iq.FU_type_0::SimdCvt            0      0.00%     52.10% # Type of FU issued
system.switch_cpus.iq.FU_type_0::SimdMisc            0      0.00%     52.10% # Type of FU issued
system.switch_cpus.iq.FU_type_0::SimdMult            0      0.00%     52.10% # Type of FU issued
system.switch_cpus.iq.FU_type_0::SimdMultAcc            0      0.00%     52.10% # Type of FU issued
system.switch_cpus.iq.FU_type_0::SimdShift            0      0.00%     52.10% # Type of FU issued
system.switch_cpus.iq.FU_type_0::SimdShiftAcc            0      0.00%     52.10% # Type of FU issued
system.switch_cpus.iq.FU_type_0::SimdDiv            0      0.00%     52.10% # Type of FU issued
system.switch_cpus.iq.FU_type_0::SimdSqrt            0      0.00%     52.10% # Type of FU issued
system.switch_cpus.iq.FU_type_0::SimdFloatAdd            0      0.00%     52.10% # Type of FU issued
system.switch_cpus.iq.FU_type_0::SimdFloatAlu            0      0.00%     52.10% # Type of FU issued
system.switch_cpus.iq.FU_type_0::SimdFloatCmp            0      0.00%     52.10% # Type of FU issued
system.switch_cpus.iq.FU_type_0::SimdFloatCvt            0      0.00%     52.10% # Type of FU issued
system.switch_cpus.iq.FU_type_0::SimdFloatDiv            0      0.00%     52.10% # Type of FU issued
system.switch_cpus.iq.FU_type_0::SimdFloatMisc            0      0.00%     52.10% # Type of FU issued
system.switch_cpus.iq.FU_type_0::SimdFloatMult            0      0.00%     52.10% # Type of FU issued
system.switch_cpus.iq.FU_type_0::SimdFloatMultAcc            0      0.00%     52.10% # Type of FU issued
system.switch_cpus.iq.FU_type_0::SimdFloatSqrt            0      0.00%     52.10% # Type of FU issued
system.switch_cpus.iq.FU_type_0::SimdReduceAdd            0      0.00%     52.10% # Type of FU issued
system.switch_cpus.iq.FU_type_0::SimdReduceAlu            0      0.00%     52.10% # Type of FU issued
system.switch_cpus.iq.FU_type_0::SimdReduceCmp            0      0.00%     52.10% # Type of FU issued
system.switch_cpus.iq.FU_type_0::SimdFloatReduceAdd            0      0.00%     52.10% # Type of FU issued
system.switch_cpus.iq.FU_type_0::SimdFloatReduceCmp            0      0.00%     52.10% # Type of FU issued
system.switch_cpus.iq.FU_type_0::SimdAes            0      0.00%     52.10% # Type of FU issued
system.switch_cpus.iq.FU_type_0::SimdAesMix            0      0.00%     52.10% # Type of FU issued
system.switch_cpus.iq.FU_type_0::SimdSha1Hash            0      0.00%     52.10% # Type of FU issued
system.switch_cpus.iq.FU_type_0::SimdSha1Hash2            0      0.00%     52.10% # Type of FU issued
system.switch_cpus.iq.FU_type_0::SimdSha256Hash            0      0.00%     52.10% # Type of FU issued
system.switch_cpus.iq.FU_type_0::SimdSha256Hash2            0      0.00%     52.10% # Type of FU issued
system.switch_cpus.iq.FU_type_0::SimdShaSigma2            0      0.00%     52.10% # Type of FU issued
system.switch_cpus.iq.FU_type_0::SimdShaSigma3            0      0.00%     52.10% # Type of FU issued
system.switch_cpus.iq.FU_type_0::SimdPredAlu            0      0.00%     52.10% # Type of FU issued
system.switch_cpus.iq.FU_type_0::MemRead       439467     43.31%     95.40% # Type of FU issued
system.switch_cpus.iq.FU_type_0::MemWrite        46636      4.60%    100.00% # Type of FU issued
system.switch_cpus.iq.FU_type_0::FloatMemRead            0      0.00%    100.00% # Type of FU issued
system.switch_cpus.iq.FU_type_0::FloatMemWrite            0      0.00%    100.00% # Type of FU issued
system.switch_cpus.iq.FU_type_0::IprAccess            0      0.00%    100.00% # Type of FU issued
system.switch_cpus.iq.FU_type_0::InstPrefetch            0      0.00%    100.00% # Type of FU issued
system.switch_cpus.iq.FU_type_0::total        1014812                       # Type of FU issued
system.switch_cpus.iq.fp_alu_accesses               0                       # Number of floating point alu accesses
system.switch_cpus.iq.fp_inst_queue_reads            0                       # Number of floating instruction queue reads
system.switch_cpus.iq.fp_inst_queue_wakeup_accesses            0                       # Number of floating instruction queue wakeup accesses
system.switch_cpus.iq.fp_inst_queue_writes            0                       # Number of floating instruction queue writes
system.switch_cpus.iq.fu_busy_cnt              477608                       # FU busy when requested
system.switch_cpus.iq.fu_busy_rate           0.470637                       # FU busy rate (busy events/executed inst)
system.switch_cpus.iq.fu_full::No_OpClass            0      0.00%      0.00% # attempts to use FU when none available
system.switch_cpus.iq.fu_full::IntAlu           53210     11.14%     11.14% # attempts to use FU when none available
system.switch_cpus.iq.fu_full::IntMult              0      0.00%     11.14% # attempts to use FU when none available
system.switch_cpus.iq.fu_full::IntDiv               0      0.00%     11.14% # attempts to use FU when none available
system.switch_cpus.iq.fu_full::FloatAdd             0      0.00%     11.14% # attempts to use FU when none available
system.switch_cpus.iq.fu_full::FloatCmp             0      0.00%     11.14% # attempts to use FU when none available
system.switch_cpus.iq.fu_full::FloatCvt             0      0.00%     11.14% # attempts to use FU when none available
system.switch_cpus.iq.fu_full::FloatMult            0      0.00%     11.14% # attempts to use FU when none available
system.switch_cpus.iq.fu_full::FloatMultAcc            0      0.00%     11.14% # attempts to use FU when none available
system.switch_cpus.iq.fu_full::FloatDiv             0      0.00%     11.14% # attempts to use FU when none available
system.switch_cpus.iq.fu_full::FloatMisc            0      0.00%     11.14% # attempts to use FU when none available
system.switch_cpus.iq.fu_full::FloatSqrt            0      0.00%     11.14% # attempts to use FU when none available
system.switch_cpus.iq.fu_full::SimdAdd              0      0.00%     11.14% # attempts to use FU when none available
system.switch_cpus.iq.fu_full::SimdAddAcc            0      0.00%     11.14% # attempts to use FU when none available
system.switch_cpus.iq.fu_full::SimdAlu              0      0.00%     11.14% # attempts to use FU when none available
system.switch_cpus.iq.fu_full::SimdCmp              0      0.00%     11.14% # attempts to use FU when none available
system.switch_cpus.iq.fu_full::SimdCvt              0      0.00%     11.14% # attempts to use FU when none available
system.switch_cpus.iq.fu_full::SimdMisc             0      0.00%     11.14% # attempts to use FU when none available
system.switch_cpus.iq.fu_full::SimdMult             0      0.00%     11.14% # attempts to use FU when none available
system.switch_cpus.iq.fu_full::SimdMultAcc            0      0.00%     11.14% # attempts to use FU when none available
system.switch_cpus.iq.fu_full::SimdShift            0      0.00%     11.14% # attempts to use FU when none available
system.switch_cpus.iq.fu_full::SimdShiftAcc            0      0.00%     11.14% # attempts to use FU when none available
system.switch_cpus.iq.fu_full::SimdDiv              0      0.00%     11.14% # attempts to use FU when none available
system.switch_cpus.iq.fu_full::SimdSqrt             0      0.00%     11.14% # attempts to use FU when none available
system.switch_cpus.iq.fu_full::SimdFloatAdd            0      0.00%     11.14% # attempts to use FU when none available
system.switch_cpus.iq.fu_full::SimdFloatAlu            0      0.00%     11.14% # attempts to use FU when none available
system.switch_cpus.iq.fu_full::SimdFloatCmp            0      0.00%     11.14% # attempts to use FU when none available
system.switch_cpus.iq.fu_full::SimdFloatCvt            0      0.00%     11.14% # attempts to use FU when none available
system.switch_cpus.iq.fu_full::SimdFloatDiv            0      0.00%     11.14% # attempts to use FU when none available
system.switch_cpus.iq.fu_full::SimdFloatMisc            0      0.00%     11.14% # attempts to use FU when none available
system.switch_cpus.iq.fu_full::SimdFloatMult            0      0.00%     11.14% # attempts to use FU when none available
system.switch_cpus.iq.fu_full::SimdFloatMultAcc            0      0.00%     11.14% # attempts to use FU when none available
system.switch_cpus.iq.fu_full::SimdFloatSqrt            0      0.00%     11.14% # attempts to use FU when none available
system.switch_cpus.iq.fu_full::SimdReduceAdd            0      0.00%     11.14% # attempts to use FU when none available
system.switch_cpus.iq.fu_full::SimdReduceAlu            0      0.00%     11.14% # attempts to use FU when none available
system.switch_cpus.iq.fu_full::SimdReduceCmp            0      0.00%     11.14% # attempts to use FU when none available
system.switch_cpus.iq.fu_full::SimdFloatReduceAdd            0      0.00%     11.14% # attempts to use FU when none available
system.switch_cpus.iq.fu_full::SimdFloatReduceCmp            0      0.00%     11.14% # attempts to use FU when none available
system.switch_cpus.iq.fu_full::SimdAes              0      0.00%     11.14% # attempts to use FU when none available
system.switch_cpus.iq.fu_full::SimdAesMix            0      0.00%     11.14% # attempts to use FU when none available
system.switch_cpus.iq.fu_full::SimdSha1Hash            0      0.00%     11.14% # attempts to use FU when none available
system.switch_cpus.iq.fu_full::SimdSha1Hash2            0      0.00%     11.14% # attempts to use FU when none available
system.switch_cpus.iq.fu_full::SimdSha256Hash            0      0.00%     11.14% # attempts to use FU when none available
system.switch_cpus.iq.fu_full::SimdSha256Hash2            0      0.00%     11.14% # attempts to use FU when none available
system.switch_cpus.iq.fu_full::SimdShaSigma2            0      0.00%     11.14% # attempts to use FU when none available
system.switch_cpus.iq.fu_full::SimdShaSigma3            0      0.00%     11.14% # attempts to use FU when none available
system.switch_cpus.iq.fu_full::SimdPredAlu            0      0.00%     11.14% # attempts to use FU when none available
system.switch_cpus.iq.fu_full::MemRead         423583     88.69%     99.83% # attempts to use FU when none available
system.switch_cpus.iq.fu_full::MemWrite           815      0.17%    100.00% # attempts to use FU when none available
system.switch_cpus.iq.fu_full::FloatMemRead            0      0.00%    100.00% # attempts to use FU when none available
system.switch_cpus.iq.fu_full::FloatMemWrite            0      0.00%    100.00% # attempts to use FU when none available
system.switch_cpus.iq.fu_full::IprAccess            0      0.00%    100.00% # attempts to use FU when none available
system.switch_cpus.iq.fu_full::InstPrefetch            0      0.00%    100.00% # attempts to use FU when none available
system.switch_cpus.iq.int_alu_accesses        1492420                       # Number of integer alu accesses
system.switch_cpus.iq.int_inst_queue_reads      3124998                       # Number of integer instruction queue reads
system.switch_cpus.iq.int_inst_queue_wakeup_accesses      1012193                       # Number of integer instruction queue wakeup accesses
system.switch_cpus.iq.int_inst_queue_writes      1089240                       # Number of integer instruction queue writes
system.switch_cpus.iq.iqInstsAdded            1044661                       # Number of instructions added to the IQ (excludes non-spec)
system.switch_cpus.iq.iqInstsIssued           1014812                       # Number of instructions issued
system.switch_cpus.iq.iqSquashedInstsExamined        44548                       # Number of squashed instructions iterated over during squash; mainly for profiling
system.switch_cpus.iq.iqSquashedInstsIssued         3531                       # Number of squashed instructions issued
system.switch_cpus.iq.iqSquashedOperandsExamined        50004                       # Number of squashed operands that are examined and possibly removed from graph
system.switch_cpus.iq.issued_per_cycle::samples       614237                       # Number of insts issued each cycle
system.switch_cpus.iq.issued_per_cycle::mean     1.652151                       # Number of insts issued each cycle
system.switch_cpus.iq.issued_per_cycle::stdev     1.186740                       # Number of insts issued each cycle
system.switch_cpus.iq.issued_per_cycle::underflows            0      0.00%      0.00% # Number of insts issued each cycle
system.switch_cpus.iq.issued_per_cycle::0       156859     25.54%     25.54% # Number of insts issued each cycle
system.switch_cpus.iq.issued_per_cycle::1        99027     16.12%     41.66% # Number of insts issued each cycle
system.switch_cpus.iq.issued_per_cycle::2       166186     27.06%     68.71% # Number of insts issued each cycle
system.switch_cpus.iq.issued_per_cycle::3       185247     30.16%     98.87% # Number of insts issued each cycle
system.switch_cpus.iq.issued_per_cycle::4         6918      1.13%    100.00% # Number of insts issued each cycle
system.switch_cpus.iq.issued_per_cycle::5            0      0.00%    100.00% # Number of insts issued each cycle
system.switch_cpus.iq.issued_per_cycle::6            0      0.00%    100.00% # Number of insts issued each cycle
system.switch_cpus.iq.issued_per_cycle::7            0      0.00%    100.00% # Number of insts issued each cycle
system.switch_cpus.iq.issued_per_cycle::8            0      0.00%    100.00% # Number of insts issued each cycle
system.switch_cpus.iq.issued_per_cycle::overflows            0      0.00%    100.00% # Number of insts issued each cycle
system.switch_cpus.iq.issued_per_cycle::min_value            0                       # Number of insts issued each cycle
system.switch_cpus.iq.issued_per_cycle::max_value            4                       # Number of insts issued each cycle
system.switch_cpus.iq.issued_per_cycle::total       614237                       # Number of insts issued each cycle
system.switch_cpus.iq.rate                   1.650938                       # Inst issue rate
system.switch_cpus.iq.vec_alu_accesses              0                       # Number of vector alu accesses
system.switch_cpus.iq.vec_inst_queue_reads            0                       # Number of vector instruction queue reads
system.switch_cpus.iq.vec_inst_queue_wakeup_accesses            0                       # Number of vector instruction queue wakeup accesses
system.switch_cpus.iq.vec_inst_queue_writes            0                       # Number of vector instruction queue writes
system.switch_cpus.memDep0.conflictingLoads       167242                       # Number of conflicting loads.
system.switch_cpus.memDep0.conflictingStores           19                       # Number of conflicting stores.
system.switch_cpus.memDep0.insertedLoads       450548                       # Number of loads inserted to the mem dependence unit.
system.switch_cpus.memDep0.insertedStores        48695                       # Number of stores inserted to the mem dependence unit.
system.switch_cpus.misc_regfile_reads         2084000                       # number of misc regfile reads
system.switch_cpus.misc_regfile_writes              1                       # number of misc regfile writes
system.switch_cpus.numCycles                   614688                       # number of cpu cycles simulated
system.switch_cpus.numWorkItemsCompleted            0                       # number of work items this cpu completed
system.switch_cpus.numWorkItemsStarted              0                       # number of work items this cpu started
system.switch_cpus.timesIdled                       6                       # Number of times that the entire CPU went into an idle state and unscheduled itself
system.switch_cpus.vec_regfile_writes              44                       # number of vector regfile writes
system.tol2bus.snoop_filter.hit_multi_requests            0                       # Number of requests hitting in the snoop filter with multiple (>1) holders of the requested data.
system.tol2bus.snoop_filter.hit_multi_snoops            0                       # Number of snoops hitting in the snoop filter with multiple (>1) holders of the requested data.
system.tol2bus.snoop_filter.hit_single_requests        24724                       # Number of requests hitting in the snoop filter with a single holder of the requested data.
system.tol2bus.snoop_filter.hit_single_snoops            0                       # Number of snoops hitting in the snoop filter with a single holder of the requested data.
system.tol2bus.snoop_filter.tot_requests        49721                       # Total number of requests made to the snoop filter.
system.tol2bus.snoop_filter.tot_snoops              0                       # Total number of snoops made to the snoop filter.
system.clk_domain.clock                          1000                       # Clock period in ticks
system.cpu.dcache.demand_hits::.cpu.data           11                       # number of demand (read+write) hits
system.cpu.dcache.demand_hits::.switch_cpus.data       284083                       # number of demand (read+write) hits
system.cpu.dcache.demand_hits::total           284094                       # number of demand (read+write) hits
system.cpu.dcache.overall_hits::.cpu.data           11                       # number of overall hits
system.cpu.dcache.overall_hits::.switch_cpus.data       284083                       # number of overall hits
system.cpu.dcache.overall_hits::total          284094                       # number of overall hits
system.cpu.dcache.demand_misses::.cpu.data            3                       # number of demand (read+write) misses
system.cpu.dcache.demand_misses::.switch_cpus.data        46015                       # number of demand (read+write) misses
system.cpu.dcache.demand_misses::total          46018                       # number of demand (read+write) misses
system.cpu.dcache.overall_misses::.cpu.data            3                       # number of overall misses
system.cpu.dcache.overall_misses::.switch_cpus.data        46015                       # number of overall misses
system.cpu.dcache.overall_misses::total         46018                       # number of overall misses
system.cpu.dcache.demand_miss_latency::.switch_cpus.data    651606800                       # number of demand (read+write) miss cycles
system.cpu.dcache.demand_miss_latency::total    651606800                       # number of demand (read+write) miss cycles
system.cpu.dcache.overall_miss_latency::.switch_cpus.data    651606800                       # number of overall miss cycles
system.cpu.dcache.overall_miss_latency::total    651606800                       # number of overall miss cycles
system.cpu.dcache.demand_accesses::.cpu.data           14                       # number of demand (read+write) accesses
system.cpu.dcache.demand_accesses::.switch_cpus.data       330098                       # number of demand (read+write) accesses
system.cpu.dcache.demand_accesses::total       330112                       # number of demand (read+write) accesses
system.cpu.dcache.overall_accesses::.cpu.data           14                       # number of overall (read+write) accesses
system.cpu.dcache.overall_accesses::.switch_cpus.data       330098                       # number of overall (read+write) accesses
system.cpu.dcache.overall_accesses::total       330112                       # number of overall (read+write) accesses
system.cpu.dcache.demand_miss_rate::.cpu.data     0.214286                       # miss rate for demand accesses
system.cpu.dcache.demand_miss_rate::.switch_cpus.data     0.139398                       # miss rate for demand accesses
system.cpu.dcache.demand_miss_rate::total     0.139401                       # miss rate for demand accesses
system.cpu.dcache.overall_miss_rate::.cpu.data     0.214286                       # miss rate for overall accesses
system.cpu.dcache.overall_miss_rate::.switch_cpus.data     0.139398                       # miss rate for overall accesses
system.cpu.dcache.overall_miss_rate::total     0.139401                       # miss rate for overall accesses
system.cpu.dcache.demand_avg_miss_latency::.switch_cpus.data 14160.747582                       # average overall miss latency
system.cpu.dcache.demand_avg_miss_latency::total 14159.824417                       # average overall miss latency
system.cpu.dcache.overall_avg_miss_latency::.switch_cpus.data 14160.747582                       # average overall miss latency
system.cpu.dcache.overall_avg_miss_latency::total 14159.824417                       # average overall miss latency
system.cpu.dcache.blocked_cycles::no_mshrs          387                       # number of cycles access was blocked
system.cpu.dcache.blocked_cycles::no_targets            0                       # number of cycles access was blocked
system.cpu.dcache.blocked::no_mshrs                11                       # number of cycles access was blocked
system.cpu.dcache.blocked::no_targets               0                       # number of cycles access was blocked
system.cpu.dcache.avg_blocked_cycles::no_mshrs    35.181818                       # average number of cycles each access was blocked
system.cpu.dcache.avg_blocked_cycles::no_targets          nan                       # average number of cycles each access was blocked
system.cpu.dcache.writebacks::.writebacks        24724                       # number of writebacks
system.cpu.dcache.writebacks::total             24724                       # number of writebacks
system.cpu.dcache.demand_mshr_hits::.switch_cpus.data        21036                       # number of demand (read+write) MSHR hits
system.cpu.dcache.demand_mshr_hits::total        21036                       # number of demand (read+write) MSHR hits
system.cpu.dcache.overall_mshr_hits::.switch_cpus.data        21036                       # number of overall MSHR hits
system.cpu.dcache.overall_mshr_hits::total        21036                       # number of overall MSHR hits
system.cpu.dcache.demand_mshr_misses::.switch_cpus.data        24979                       # number of demand (read+write) MSHR misses
system.cpu.dcache.demand_mshr_misses::total        24979                       # number of demand (read+write) MSHR misses
system.cpu.dcache.overall_mshr_misses::.switch_cpus.data        24979                       # number of overall MSHR misses
system.cpu.dcache.overall_mshr_misses::total        24979                       # number of overall MSHR misses
system.cpu.dcache.demand_mshr_miss_latency::.switch_cpus.data    368924000                       # number of demand (read+write) MSHR miss cycles
system.cpu.dcache.demand_mshr_miss_latency::total    368924000                       # number of demand (read+write) MSHR miss cycles
system.cpu.dcache.overall_mshr_miss_latency::.switch_cpus.data    368924000                       # number of overall MSHR miss cycles
system.cpu.dcache.overall_mshr_miss_latency::total    368924000                       # number of overall MSHR miss cycles
system.cpu.dcache.demand_mshr_miss_rate::.switch_cpus.data     0.075671                       # mshr miss rate for demand accesses
system.cpu.dcache.demand_mshr_miss_rate::total     0.075668                       # mshr miss rate for demand accesses
system.cpu.dcache.overall_mshr_miss_rate::.switch_cpus.data     0.075671                       # mshr miss rate for overall accesses
system.cpu.dcache.overall_mshr_miss_rate::total     0.075668                       # mshr miss rate for overall accesses
system.cpu.dcache.demand_avg_mshr_miss_latency::.switch_cpus.data 14769.366268                       # average overall mshr miss latency
system.cpu.dcache.demand_avg_mshr_miss_latency::total 14769.366268                       # average overall mshr miss latency
system.cpu.dcache.overall_avg_mshr_miss_latency::.switch_cpus.data 14769.366268                       # average overall mshr miss latency
system.cpu.dcache.overall_avg_mshr_miss_latency::total 14769.366268                       # average overall mshr miss latency
system.cpu.dcache.replacements                  24724                       # number of replacements
system.cpu.dcache.ReadReq_hits::.cpu.data            9                       # number of ReadReq hits
system.cpu.dcache.ReadReq_hits::.switch_cpus.data       238740                       # number of ReadReq hits
system.cpu.dcache.ReadReq_hits::total          238749                       # number of ReadReq hits
system.cpu.dcache.ReadReq_misses::.cpu.data            2                       # number of ReadReq misses
system.cpu.dcache.ReadReq_misses::.switch_cpus.data        45587                       # number of ReadReq misses
system.cpu.dcache.ReadReq_misses::total         45589                       # number of ReadReq misses
system.cpu.dcache.ReadReq_miss_latency::.switch_cpus.data    620699600                       # number of ReadReq miss cycles
system.cpu.dcache.ReadReq_miss_latency::total    620699600                       # number of ReadReq miss cycles
system.cpu.dcache.ReadReq_accesses::.cpu.data           11                       # number of ReadReq accesses(hits+misses)
system.cpu.dcache.ReadReq_accesses::.switch_cpus.data       284327                       # number of ReadReq accesses(hits+misses)
system.cpu.dcache.ReadReq_accesses::total       284338                       # number of ReadReq accesses(hits+misses)
system.cpu.dcache.ReadReq_miss_rate::.cpu.data     0.181818                       # miss rate for ReadReq accesses
system.cpu.dcache.ReadReq_miss_rate::.switch_cpus.data     0.160333                       # miss rate for ReadReq accesses
system.cpu.dcache.ReadReq_miss_rate::total     0.160334                       # miss rate for ReadReq accesses
system.cpu.dcache.ReadReq_avg_miss_latency::.switch_cpus.data 13615.715006                       # average ReadReq miss latency
system.cpu.dcache.ReadReq_avg_miss_latency::total 13615.117682                       # average ReadReq miss latency
system.cpu.dcache.ReadReq_mshr_hits::.switch_cpus.data        21036                       # number of ReadReq MSHR hits
system.cpu.dcache.ReadReq_mshr_hits::total        21036                       # number of ReadReq MSHR hits
system.cpu.dcache.ReadReq_mshr_misses::.switch_cpus.data        24551                       # number of ReadReq MSHR misses
system.cpu.dcache.ReadReq_mshr_misses::total        24551                       # number of ReadReq MSHR misses
system.cpu.dcache.ReadReq_mshr_miss_latency::.switch_cpus.data    338359200                       # number of ReadReq MSHR miss cycles
system.cpu.dcache.ReadReq_mshr_miss_latency::total    338359200                       # number of ReadReq MSHR miss cycles
system.cpu.dcache.ReadReq_mshr_miss_rate::.switch_cpus.data     0.086348                       # mshr miss rate for ReadReq accesses
system.cpu.dcache.ReadReq_mshr_miss_rate::total     0.086344                       # mshr miss rate for ReadReq accesses
system.cpu.dcache.ReadReq_avg_mshr_miss_latency::.switch_cpus.data 13781.890758                       # average ReadReq mshr miss latency
system.cpu.dcache.ReadReq_avg_mshr_miss_latency::total 13781.890758                       # average ReadReq mshr miss latency
system.cpu.dcache.WriteReq_hits::.cpu.data            2                       # number of WriteReq hits
system.cpu.dcache.WriteReq_hits::.switch_cpus.data        45343                       # number of WriteReq hits
system.cpu.dcache.WriteReq_hits::total          45345                       # number of WriteReq hits
system.cpu.dcache.WriteReq_misses::.cpu.data            1                       # number of WriteReq misses
system.cpu.dcache.WriteReq_misses::.switch_cpus.data          428                       # number of WriteReq misses
system.cpu.dcache.WriteReq_misses::total          429                       # number of WriteReq misses
system.cpu.dcache.WriteReq_miss_latency::.switch_cpus.data     30907200                       # number of WriteReq miss cycles
system.cpu.dcache.WriteReq_miss_latency::total     30907200                       # number of WriteReq miss cycles
system.cpu.dcache.WriteReq_accesses::.cpu.data            3                       # number of WriteReq accesses(hits+misses)
system.cpu.dcache.WriteReq_accesses::.switch_cpus.data        45771                       # number of WriteReq accesses(hits+misses)
system.cpu.dcache.WriteReq_accesses::total        45774                       # number of WriteReq accesses(hits+misses)
system.cpu.dcache.WriteReq_miss_rate::.cpu.data     0.333333                       # miss rate for WriteReq accesses
system.cpu.dcache.WriteReq_miss_rate::.switch_cpus.data     0.009351                       # miss rate for WriteReq accesses
system.cpu.dcache.WriteReq_miss_rate::total     0.009372                       # miss rate for WriteReq accesses
system.cpu.dcache.WriteReq_avg_miss_latency::.switch_cpus.data 72213.084112                       # average WriteReq miss latency
system.cpu.dcache.WriteReq_avg_miss_latency::total 72044.755245                       # average WriteReq miss latency
system.cpu.dcache.WriteReq_mshr_misses::.switch_cpus.data          428                       # number of WriteReq MSHR misses
system.cpu.dcache.WriteReq_mshr_misses::total          428                       # number of WriteReq MSHR misses
system.cpu.dcache.WriteReq_mshr_miss_latency::.switch_cpus.data     30564800                       # number of WriteReq MSHR miss cycles
system.cpu.dcache.WriteReq_mshr_miss_latency::total     30564800                       # number of WriteReq MSHR miss cycles
system.cpu.dcache.WriteReq_mshr_miss_rate::.switch_cpus.data     0.009351                       # mshr miss rate for WriteReq accesses
system.cpu.dcache.WriteReq_mshr_miss_rate::total     0.009350                       # mshr miss rate for WriteReq accesses
system.cpu.dcache.WriteReq_avg_mshr_miss_latency::.switch_cpus.data 71413.084112                       # average WriteReq mshr miss latency
system.cpu.dcache.WriteReq_avg_mshr_miss_latency::total 71413.084112                       # average WriteReq mshr miss latency
system.cpu.dcache.power_state.pwrStateResidencyTicks::UNDEFINED 1348068933200                       # Cumulative time (in ticks) in various power states
system.cpu.dcache.tags.tagsinuse           251.003416                       # Cycle average of tags in use
system.cpu.dcache.tags.total_refs               62801                       # Total number of references to valid blocks.
system.cpu.dcache.tags.sampled_refs             24724                       # Sample count of references to valid blocks.
system.cpu.dcache.tags.avg_refs              2.540083                       # Average number of references to valid blocks.
system.cpu.dcache.tags.warmup_cycle      1347823048400                       # Cycle when the warmup percentage was hit.
system.cpu.dcache.tags.occ_blocks::.cpu.data     2.016214                       # Average occupied blocks per requestor
system.cpu.dcache.tags.occ_blocks::.switch_cpus.data   248.987202                       # Average occupied blocks per requestor
system.cpu.dcache.tags.occ_percent::.cpu.data     0.007876                       # Average percentage of cache occupancy
system.cpu.dcache.tags.occ_percent::.switch_cpus.data     0.972606                       # Average percentage of cache occupancy
system.cpu.dcache.tags.occ_percent::total     0.980482                       # Average percentage of cache occupancy
system.cpu.dcache.tags.occ_task_id_blocks::1024          256                       # Occupied blocks per task id
system.cpu.dcache.tags.age_task_id_blocks_1024::0          254                       # Occupied blocks per task id
system.cpu.dcache.tags.age_task_id_blocks_1024::2            2                       # Occupied blocks per task id
system.cpu.dcache.tags.occ_task_id_percent::1024            1                       # Percentage of cache occupancy per task id
system.cpu.dcache.tags.tag_accesses           2665876                       # Number of tag accesses
system.cpu.dcache.tags.data_accesses          2665876                       # Number of data accesses
system.cpu.dcache.tags.power_state.pwrStateResidencyTicks::UNDEFINED 1348068933200                       # Cumulative time (in ticks) in various power states
system.cpu.dtb.instHits                             0                       # ITB inst hits
system.cpu.dtb.instMisses                           0                       # ITB inst misses
system.cpu.dtb.readHits                             0                       # DTB read hits
system.cpu.dtb.readMisses                           0                       # DTB read misses
system.cpu.dtb.writeHits                            0                       # DTB write hits
system.cpu.dtb.writeMisses                          0                       # DTB write misses
system.cpu.dtb.inserts                              0                       # Number of times an entry is inserted into the TLB
system.cpu.dtb.flushTlb                             2                       # Number of times complete TLB was flushed
system.cpu.dtb.flushTlbMva                          0                       # Number of times TLB was flushed by MVA
system.cpu.dtb.flushTlbMvaAsid                      0                       # Number of times TLB was flushed by MVA & ASID
system.cpu.dtb.flushTlbAsid                         0                       # Number of times TLB was flushed by ASID
system.cpu.dtb.flushedEntries                       0                       # Number of entries that have been flushed from TLB
system.cpu.dtb.alignFaults                          0                       # Number of TLB faults due to alignment restrictions
system.cpu.dtb.prefetchFaults                       0                       # Number of TLB faults due to prefetch
system.cpu.dtb.domainFaults                         0                       # Number of TLB faults due to domain restrictions
system.cpu.dtb.permsFaults                          0                       # Number of TLB faults due to permissions restrictions
system.cpu.dtb.readAccesses                         0                       # DTB read accesses
system.cpu.dtb.writeAccesses                        0                       # DTB write accesses
system.cpu.dtb.instAccesses                         0                       # ITB inst accesses
system.cpu.dtb.hits                                 0                       # Total TLB (inst and data) hits
system.cpu.dtb.misses                               0                       # Total TLB (inst and data) misses
system.cpu.dtb.accesses                             0                       # Total TLB (inst and data) accesses
system.cpu.dtb.stage2_mmu.stage2_tlb.instHits            0                       # ITB inst hits
system.cpu.dtb.stage2_mmu.stage2_tlb.instMisses            0                       # ITB inst misses
system.cpu.dtb.stage2_mmu.stage2_tlb.readHits            0                       # DTB read hits
system.cpu.dtb.stage2_mmu.stage2_tlb.readMisses            0                       # DTB read misses
system.cpu.dtb.stage2_mmu.stage2_tlb.writeHits            0                       # DTB write hits
system.cpu.dtb.stage2_mmu.stage2_tlb.writeMisses            0                       # DTB write misses
system.cpu.dtb.stage2_mmu.stage2_tlb.inserts            0                       # Number of times an entry is inserted into the TLB
system.cpu.dtb.stage2_mmu.stage2_tlb.flushTlb            0                       # Number of times complete TLB was flushed
system.cpu.dtb.stage2_mmu.stage2_tlb.flushTlbMva            0                       # Number of times TLB was flushed by MVA
system.cpu.dtb.stage2_mmu.stage2_tlb.flushTlbMvaAsid            0                       # Number of times TLB was flushed by MVA & ASID
system.cpu.dtb.stage2_mmu.stage2_tlb.flushTlbAsid            0                       # Number of times TLB was flushed by ASID
system.cpu.dtb.stage2_mmu.stage2_tlb.flushedEntries            0                       # Number of entries that have been flushed from TLB
system.cpu.dtb.stage2_mmu.stage2_tlb.alignFaults            0                       # Number of TLB faults due to alignment restrictions
system.cpu.dtb.stage2_mmu.stage2_tlb.prefetchFaults            0                       # Number of TLB faults due to prefetch
system.cpu.dtb.stage2_mmu.stage2_tlb.domainFaults            0                       # Number of TLB faults due to domain restrictions
system.cpu.dtb.stage2_mmu.stage2_tlb.permsFaults            0                       # Number of TLB faults due to permissions restrictions
system.cpu.dtb.stage2_mmu.stage2_tlb.readAccesses            0                       # DTB read accesses
system.cpu.dtb.stage2_mmu.stage2_tlb.writeAccesses            0                       # DTB write accesses
system.cpu.dtb.stage2_mmu.stage2_tlb.instAccesses            0                       # ITB inst accesses
system.cpu.dtb.stage2_mmu.stage2_tlb.hits            0                       # Total TLB (inst and data) hits
system.cpu.dtb.stage2_mmu.stage2_tlb.misses            0                       # Total TLB (inst and data) misses
system.cpu.dtb.stage2_mmu.stage2_tlb.accesses            0                       # Total TLB (inst and data) accesses
system.cpu.dtb.stage2_mmu.stage2_tlb.walker.walks            0                       # Table walker walks requested
system.cpu.dtb.stage2_mmu.stage2_tlb.walker.requestOrigin_Requested::Data            0                       # Table walker requests started/completed, data/inst
system.cpu.dtb.stage2_mmu.stage2_tlb.walker.requestOrigin_Requested::Inst            0                       # Table walker requests started/completed, data/inst
system.cpu.dtb.stage2_mmu.stage2_tlb.walker.requestOrigin_Requested::total            0                       # Table walker requests started/completed, data/inst
system.cpu.dtb.stage2_mmu.stage2_tlb.walker.requestOrigin_Completed::Data            0                       # Table walker requests started/completed, data/inst
system.cpu.dtb.stage2_mmu.stage2_tlb.walker.requestOrigin_Completed::Inst            0                       # Table walker requests started/completed, data/inst
system.cpu.dtb.stage2_mmu.stage2_tlb.walker.requestOrigin_Completed::total            0                       # Table walker requests started/completed, data/inst
system.cpu.dtb.stage2_mmu.stage2_tlb.walker.requestOrigin::total            0                       # Table walker requests started/completed, data/inst
system.cpu.dtb.stage2_mmu.stage2_tlb.walker.power_state.pwrStateResidencyTicks::UNDEFINED 1348068933200                       # Cumulative time (in ticks) in various power states
system.cpu.dtb.walker.walks                         0                       # Table walker walks requested
system.cpu.dtb.walker.requestOrigin_Requested::Data            0                       # Table walker requests started/completed, data/inst
system.cpu.dtb.walker.requestOrigin_Requested::Inst            0                       # Table walker requests started/completed, data/inst
system.cpu.dtb.walker.requestOrigin_Requested::total            0                       # Table walker requests started/completed, data/inst
system.cpu.dtb.walker.requestOrigin_Completed::Data            0                       # Table walker requests started/completed, data/inst
system.cpu.dtb.walker.requestOrigin_Completed::Inst            0                       # Table walker requests started/completed, data/inst
system.cpu.dtb.walker.requestOrigin_Completed::total            0                       # Table walker requests started/completed, data/inst
system.cpu.dtb.walker.requestOrigin::total            0                       # Table walker requests started/completed, data/inst
system.cpu.dtb.walker.power_state.pwrStateResidencyTicks::UNDEFINED 1348068933200                       # Cumulative time (in ticks) in various power states
system.cpu.dtb_walker_cache.blocked_cycles::no_mshrs            0                       # number of cycles access was blocked
system.cpu.dtb_walker_cache.blocked_cycles::no_targets            0                       # number of cycles access was blocked
system.cpu.dtb_walker_cache.blocked::no_mshrs            0                       # number of cycles access was blocked
system.cpu.dtb_walker_cache.blocked::no_targets            0                       # number of cycles access was blocked
system.cpu.dtb_walker_cache.avg_blocked_cycles::no_mshrs          nan                       # average number of cycles each access was blocked
system.cpu.dtb_walker_cache.avg_blocked_cycles::no_targets          nan                       # average number of cycles each access was blocked
system.cpu.dtb_walker_cache.replacements            0                       # number of replacements
system.cpu.dtb_walker_cache.power_state.pwrStateResidencyTicks::UNDEFINED 1348068933200                       # Cumulative time (in ticks) in various power states
system.cpu.dtb_walker_cache.tags.tagsinuse            0                       # Cycle average of tags in use
system.cpu.dtb_walker_cache.tags.total_refs            0                       # Total number of references to valid blocks.
system.cpu.dtb_walker_cache.tags.sampled_refs            0                       # Sample count of references to valid blocks.
system.cpu.dtb_walker_cache.tags.avg_refs          nan                       # Average number of references to valid blocks.
system.cpu.dtb_walker_cache.tags.warmup_cycle            0                       # Cycle when the warmup percentage was hit.
system.cpu.dtb_walker_cache.tags.tag_accesses            0                       # Number of tag accesses
system.cpu.dtb_walker_cache.tags.data_accesses            0                       # Number of data accesses
system.cpu.dtb_walker_cache.tags.power_state.pwrStateResidencyTicks::UNDEFINED 1348068933200                       # Cumulative time (in ticks) in various power states
system.cpu.icache.demand_hits::.cpu.inst           23                       # number of demand (read+write) hits
system.cpu.icache.demand_hits::.switch_cpus.inst        98344                       # number of demand (read+write) hits
system.cpu.icache.demand_hits::total            98367                       # number of demand (read+write) hits
system.cpu.icache.overall_hits::.cpu.inst           23                       # number of overall hits
system.cpu.icache.overall_hits::.switch_cpus.inst        98344                       # number of overall hits
system.cpu.icache.overall_hits::total           98367                       # number of overall hits
system.cpu.icache.demand_misses::.cpu.inst            2                       # number of demand (read+write) misses
system.cpu.icache.demand_misses::.switch_cpus.inst           35                       # number of demand (read+write) misses
system.cpu.icache.demand_misses::total             37                       # number of demand (read+write) misses
system.cpu.icache.overall_misses::.cpu.inst            2                       # number of overall misses
system.cpu.icache.overall_misses::.switch_cpus.inst           35                       # number of overall misses
system.cpu.icache.overall_misses::total            37                       # number of overall misses
system.cpu.icache.demand_miss_latency::.switch_cpus.inst      1741600                       # number of demand (read+write) miss cycles
system.cpu.icache.demand_miss_latency::total      1741600                       # number of demand (read+write) miss cycles
system.cpu.icache.overall_miss_latency::.switch_cpus.inst      1741600                       # number of overall miss cycles
system.cpu.icache.overall_miss_latency::total      1741600                       # number of overall miss cycles
system.cpu.icache.demand_accesses::.cpu.inst           25                       # number of demand (read+write) accesses
system.cpu.icache.demand_accesses::.switch_cpus.inst        98379                       # number of demand (read+write) accesses
system.cpu.icache.demand_accesses::total        98404                       # number of demand (read+write) accesses
system.cpu.icache.overall_accesses::.cpu.inst           25                       # number of overall (read+write) accesses
system.cpu.icache.overall_accesses::.switch_cpus.inst        98379                       # number of overall (read+write) accesses
system.cpu.icache.overall_accesses::total        98404                       # number of overall (read+write) accesses
system.cpu.icache.demand_miss_rate::.cpu.inst     0.080000                       # miss rate for demand accesses
system.cpu.icache.demand_miss_rate::.switch_cpus.inst     0.000356                       # miss rate for demand accesses
system.cpu.icache.demand_miss_rate::total     0.000376                       # miss rate for demand accesses
system.cpu.icache.overall_miss_rate::.cpu.inst     0.080000                       # miss rate for overall accesses
system.cpu.icache.overall_miss_rate::.switch_cpus.inst     0.000356                       # miss rate for overall accesses
system.cpu.icache.overall_miss_rate::total     0.000376                       # miss rate for overall accesses
system.cpu.icache.demand_avg_miss_latency::.switch_cpus.inst        49760                       # average overall miss latency
system.cpu.icache.demand_avg_miss_latency::total 47070.270270                       # average overall miss latency
system.cpu.icache.overall_avg_miss_latency::.switch_cpus.inst        49760                       # average overall miss latency
system.cpu.icache.overall_avg_miss_latency::total 47070.270270                       # average overall miss latency
system.cpu.icache.blocked_cycles::no_mshrs          326                       # number of cycles access was blocked
system.cpu.icache.blocked_cycles::no_targets           21                       # number of cycles access was blocked
system.cpu.icache.blocked::no_mshrs                 2                       # number of cycles access was blocked
system.cpu.icache.blocked::no_targets               1                       # number of cycles access was blocked
system.cpu.icache.avg_blocked_cycles::no_mshrs          163                       # average number of cycles each access was blocked
system.cpu.icache.avg_blocked_cycles::no_targets           21                       # average number of cycles each access was blocked
system.cpu.icache.demand_mshr_hits::.switch_cpus.inst           22                       # number of demand (read+write) MSHR hits
system.cpu.icache.demand_mshr_hits::total           22                       # number of demand (read+write) MSHR hits
system.cpu.icache.overall_mshr_hits::.switch_cpus.inst           22                       # number of overall MSHR hits
system.cpu.icache.overall_mshr_hits::total           22                       # number of overall MSHR hits
system.cpu.icache.demand_mshr_misses::.switch_cpus.inst           13                       # number of demand (read+write) MSHR misses
system.cpu.icache.demand_mshr_misses::total           13                       # number of demand (read+write) MSHR misses
system.cpu.icache.overall_mshr_misses::.switch_cpus.inst           13                       # number of overall MSHR misses
system.cpu.icache.overall_mshr_misses::total           13                       # number of overall MSHR misses
system.cpu.icache.demand_mshr_miss_latency::.switch_cpus.inst       932800                       # number of demand (read+write) MSHR miss cycles
system.cpu.icache.demand_mshr_miss_latency::total       932800                       # number of demand (read+write) MSHR miss cycles
system.cpu.icache.overall_mshr_miss_latency::.switch_cpus.inst       932800                       # number of overall MSHR miss cycles
system.cpu.icache.overall_mshr_miss_latency::total       932800                       # number of overall MSHR miss cycles
system.cpu.icache.demand_mshr_miss_rate::.switch_cpus.inst     0.000132                       # mshr miss rate for demand accesses
system.cpu.icache.demand_mshr_miss_rate::total     0.000132                       # mshr miss rate for demand accesses
system.cpu.icache.overall_mshr_miss_rate::.switch_cpus.inst     0.000132                       # mshr miss rate for overall accesses
system.cpu.icache.overall_mshr_miss_rate::total     0.000132                       # mshr miss rate for overall accesses
system.cpu.icache.demand_avg_mshr_miss_latency::.switch_cpus.inst 71753.846154                       # average overall mshr miss latency
system.cpu.icache.demand_avg_mshr_miss_latency::total 71753.846154                       # average overall mshr miss latency
system.cpu.icache.overall_avg_mshr_miss_latency::.switch_cpus.inst 71753.846154                       # average overall mshr miss latency
system.cpu.icache.overall_avg_mshr_miss_latency::total 71753.846154                       # average overall mshr miss latency
system.cpu.icache.replacements                      0                       # number of replacements
system.cpu.icache.ReadReq_hits::.cpu.inst           23                       # number of ReadReq hits
system.cpu.icache.ReadReq_hits::.switch_cpus.inst        98344                       # number of ReadReq hits
system.cpu.icache.ReadReq_hits::total           98367                       # number of ReadReq hits
system.cpu.icache.ReadReq_misses::.cpu.inst            2                       # number of ReadReq misses
system.cpu.icache.ReadReq_misses::.switch_cpus.inst           35                       # number of ReadReq misses
system.cpu.icache.ReadReq_misses::total            37                       # number of ReadReq misses
system.cpu.icache.ReadReq_miss_latency::.switch_cpus.inst      1741600                       # number of ReadReq miss cycles
system.cpu.icache.ReadReq_miss_latency::total      1741600                       # number of ReadReq miss cycles
system.cpu.icache.ReadReq_accesses::.cpu.inst           25                       # number of ReadReq accesses(hits+misses)
system.cpu.icache.ReadReq_accesses::.switch_cpus.inst        98379                       # number of ReadReq accesses(hits+misses)
system.cpu.icache.ReadReq_accesses::total        98404                       # number of ReadReq accesses(hits+misses)
system.cpu.icache.ReadReq_miss_rate::.cpu.inst     0.080000                       # miss rate for ReadReq accesses
system.cpu.icache.ReadReq_miss_rate::.switch_cpus.inst     0.000356                       # miss rate for ReadReq accesses
system.cpu.icache.ReadReq_miss_rate::total     0.000376                       # miss rate for ReadReq accesses
system.cpu.icache.ReadReq_avg_miss_latency::.switch_cpus.inst        49760                       # average ReadReq miss latency
system.cpu.icache.ReadReq_avg_miss_latency::total 47070.270270                       # average ReadReq miss latency
system.cpu.icache.ReadReq_mshr_hits::.switch_cpus.inst           22                       # number of ReadReq MSHR hits
system.cpu.icache.ReadReq_mshr_hits::total           22                       # number of ReadReq MSHR hits
system.cpu.icache.ReadReq_mshr_misses::.switch_cpus.inst           13                       # number of ReadReq MSHR misses
system.cpu.icache.ReadReq_mshr_misses::total           13                       # number of ReadReq MSHR misses
system.cpu.icache.ReadReq_mshr_miss_latency::.switch_cpus.inst       932800                       # number of ReadReq MSHR miss cycles
system.cpu.icache.ReadReq_mshr_miss_latency::total       932800                       # number of ReadReq MSHR miss cycles
system.cpu.icache.ReadReq_mshr_miss_rate::.switch_cpus.inst     0.000132                       # mshr miss rate for ReadReq accesses
system.cpu.icache.ReadReq_mshr_miss_rate::total     0.000132                       # mshr miss rate for ReadReq accesses
system.cpu.icache.ReadReq_avg_mshr_miss_latency::.switch_cpus.inst 71753.846154                       # average ReadReq mshr miss latency
system.cpu.icache.ReadReq_avg_mshr_miss_latency::total 71753.846154                       # average ReadReq mshr miss latency
system.cpu.icache.power_state.pwrStateResidencyTicks::UNDEFINED 1348068933200                       # Cumulative time (in ticks) in various power states
system.cpu.icache.tags.tagsinuse            14.971889                       # Cycle average of tags in use
system.cpu.icache.tags.total_refs                   0                       # Total number of references to valid blocks.
system.cpu.icache.tags.sampled_refs                 0                       # Sample count of references to valid blocks.
system.cpu.icache.tags.avg_refs                   nan                       # Average number of references to valid blocks.
system.cpu.icache.tags.warmup_cycle      1347823048400                       # Cycle when the warmup percentage was hit.
system.cpu.icache.tags.occ_blocks::.cpu.inst     1.999982                       # Average occupied blocks per requestor
system.cpu.icache.tags.occ_blocks::.switch_cpus.inst    12.971907                       # Average occupied blocks per requestor
system.cpu.icache.tags.occ_percent::.cpu.inst     0.003906                       # Average percentage of cache occupancy
system.cpu.icache.tags.occ_percent::.switch_cpus.inst     0.025336                       # Average percentage of cache occupancy
system.cpu.icache.tags.occ_percent::total     0.029242                       # Average percentage of cache occupancy
system.cpu.icache.tags.occ_task_id_blocks::1024           15                       # Occupied blocks per task id
system.cpu.icache.tags.age_task_id_blocks_1024::2           15                       # Occupied blocks per task id
system.cpu.icache.tags.occ_task_id_percent::1024     0.029297                       # Percentage of cache occupancy per task id
system.cpu.icache.tags.tag_accesses            787247                       # Number of tag accesses
system.cpu.icache.tags.data_accesses           787247                       # Number of data accesses
system.cpu.icache.tags.power_state.pwrStateResidencyTicks::UNDEFINED 1348068933200                       # Cumulative time (in ticks) in various power states
system.cpu.itb.instHits                             0                       # ITB inst hits
system.cpu.itb.instMisses                           0                       # ITB inst misses
system.cpu.itb.readHits                             0                       # DTB read hits
system.cpu.itb.readMisses                           0                       # DTB read misses
system.cpu.itb.writeHits                            0                       # DTB write hits
system.cpu.itb.writeMisses                          0                       # DTB write misses
system.cpu.itb.inserts                              0                       # Number of times an entry is inserted into the TLB
system.cpu.itb.flushTlb                             2                       # Number of times complete TLB was flushed
system.cpu.itb.flushTlbMva                          0                       # Number of times TLB was flushed by MVA
system.cpu.itb.flushTlbMvaAsid                      0                       # Number of times TLB was flushed by MVA & ASID
system.cpu.itb.flushTlbAsid                         0                       # Number of times TLB was flushed by ASID
system.cpu.itb.flushedEntries                       0                       # Number of entries that have been flushed from TLB
system.cpu.itb.alignFaults                          0                       # Number of TLB faults due to alignment restrictions
system.cpu.itb.prefetchFaults                       0                       # Number of TLB faults due to prefetch
system.cpu.itb.domainFaults                         0                       # Number of TLB faults due to domain restrictions
system.cpu.itb.permsFaults                          0                       # Number of TLB faults due to permissions restrictions
system.cpu.itb.readAccesses                         0                       # DTB read accesses
system.cpu.itb.writeAccesses                        0                       # DTB write accesses
system.cpu.itb.instAccesses                         0                       # ITB inst accesses
system.cpu.itb.hits                                 0                       # Total TLB (inst and data) hits
system.cpu.itb.misses                               0                       # Total TLB (inst and data) misses
system.cpu.itb.accesses                             0                       # Total TLB (inst and data) accesses
system.cpu.itb.stage2_mmu.stage2_tlb.instHits            0                       # ITB inst hits
system.cpu.itb.stage2_mmu.stage2_tlb.instMisses            0                       # ITB inst misses
system.cpu.itb.stage2_mmu.stage2_tlb.readHits            0                       # DTB read hits
system.cpu.itb.stage2_mmu.stage2_tlb.readMisses            0                       # DTB read misses
system.cpu.itb.stage2_mmu.stage2_tlb.writeHits            0                       # DTB write hits
system.cpu.itb.stage2_mmu.stage2_tlb.writeMisses            0                       # DTB write misses
system.cpu.itb.stage2_mmu.stage2_tlb.inserts            0                       # Number of times an entry is inserted into the TLB
system.cpu.itb.stage2_mmu.stage2_tlb.flushTlb            0                       # Number of times complete TLB was flushed
system.cpu.itb.stage2_mmu.stage2_tlb.flushTlbMva            0                       # Number of times TLB was flushed by MVA
system.cpu.itb.stage2_mmu.stage2_tlb.flushTlbMvaAsid            0                       # Number of times TLB was flushed by MVA & ASID
system.cpu.itb.stage2_mmu.stage2_tlb.flushTlbAsid            0                       # Number of times TLB was flushed by ASID
system.cpu.itb.stage2_mmu.stage2_tlb.flushedEntries            0                       # Number of entries that have been flushed from TLB
system.cpu.itb.stage2_mmu.stage2_tlb.alignFaults            0                       # Number of TLB faults due to alignment restrictions
system.cpu.itb.stage2_mmu.stage2_tlb.prefetchFaults            0                       # Number of TLB faults due to prefetch
system.cpu.itb.stage2_mmu.stage2_tlb.domainFaults            0                       # Number of TLB faults due to domain restrictions
system.cpu.itb.stage2_mmu.stage2_tlb.permsFaults            0                       # Number of TLB faults due to permissions restrictions
system.cpu.itb.stage2_mmu.stage2_tlb.readAccesses            0                       # DTB read accesses
system.cpu.itb.stage2_mmu.stage2_tlb.writeAccesses            0                       # DTB write accesses
system.cpu.itb.stage2_mmu.stage2_tlb.instAccesses            0                       # ITB inst accesses
system.cpu.itb.stage2_mmu.stage2_tlb.hits            0                       # Total TLB (inst and data) hits
system.cpu.itb.stage2_mmu.stage2_tlb.misses            0                       # Total TLB (inst and data) misses
system.cpu.itb.stage2_mmu.stage2_tlb.accesses            0                       # Total TLB (inst and data) accesses
system.cpu.itb.stage2_mmu.stage2_tlb.walker.walks            0                       # Table walker walks requested
system.cpu.itb.stage2_mmu.stage2_tlb.walker.requestOrigin_Requested::Data            0                       # Table walker requests started/completed, data/inst
system.cpu.itb.stage2_mmu.stage2_tlb.walker.requestOrigin_Requested::Inst            0                       # Table walker requests started/completed, data/inst
system.cpu.itb.stage2_mmu.stage2_tlb.walker.requestOrigin_Requested::total            0                       # Table walker requests started/completed, data/inst
system.cpu.itb.stage2_mmu.stage2_tlb.walker.requestOrigin_Completed::Data            0                       # Table walker requests started/completed, data/inst
system.cpu.itb.stage2_mmu.stage2_tlb.walker.requestOrigin_Completed::Inst            0                       # Table walker requests started/completed, data/inst
system.cpu.itb.stage2_mmu.stage2_tlb.walker.requestOrigin_Completed::total            0                       # Table walker requests started/completed, data/inst
system.cpu.itb.stage2_mmu.stage2_tlb.walker.requestOrigin::total            0                       # Table walker requests started/completed, data/inst
system.cpu.itb.stage2_mmu.stage2_tlb.walker.power_state.pwrStateResidencyTicks::UNDEFINED 1348068933200                       # Cumulative time (in ticks) in various power states
system.cpu.itb.walker.walks                         0                       # Table walker walks requested
system.cpu.itb.walker.requestOrigin_Requested::Data            0                       # Table walker requests started/completed, data/inst
system.cpu.itb.walker.requestOrigin_Requested::Inst            0                       # Table walker requests started/completed, data/inst
system.cpu.itb.walker.requestOrigin_Requested::total            0                       # Table walker requests started/completed, data/inst
system.cpu.itb.walker.requestOrigin_Completed::Data            0                       # Table walker requests started/completed, data/inst
system.cpu.itb.walker.requestOrigin_Completed::Inst            0                       # Table walker requests started/completed, data/inst
system.cpu.itb.walker.requestOrigin_Completed::total            0                       # Table walker requests started/completed, data/inst
system.cpu.itb.walker.requestOrigin::total            0                       # Table walker requests started/completed, data/inst
[...]
system.switch_cpus.fetch.cycles               5725904                       # Number of cycles fetch has run and was not squashing or blocked
system.switch_cpus.fetch.squashCycles           37026                       # Number of cycles fetch has spent squashing
system.switch_cpus.fetch.tlbCycles                148                       # Number of cycles fetch has spent waiting for tlb
system.switch_cpus.fetch.miscStallCycles         1056                       # Number of cycles fetch has spent waiting on interrupts,or bad addresses, or out of MSHRs
system.switch_cpus.fetch.pendingTrapStallCycles           42                       # Number of stall cycles due to pending traps
system.switch_cpus.fetch.icacheWaitRetryStallCycles          253                       # Number of stall cycles due to full MSHR
system.switch_cpus.fetch.cacheLines           1306384                       # Number of cache lines fetched
system.switch_cpus.fetch.icacheSquashes            55                       # Number of outstanding Icache misses that were squashed
system.switch_cpus.fetch.nisnDist::samples      5759789                       # Number of instructions fetched each cycle (Total)
system.switch_cpus.fetch.nisnDist::mean      2.219442                       # Number of instructions fetched each cycle (Total)
system.switch_cpus.fetch.nisnDist::stdev     2.934638                       # Number of instructions fetched each cycle (Total)
system.switch_cpus.fetch.nisnDist::underflows            0      0.00%      0.00% # Number of instructions fetched each cycle (Total)
system.switch_cpus.fetch.nisnDist::0          3170178     55.04%     55.04% # Number of instructions fetched each cycle (Total)
system.switch_cpus.fetch.nisnDist::1           255021      4.43%     59.47% # Number of instructions fetched each cycle (Total)
system.switch_cpus.fetch.nisnDist::2           217424      3.77%     63.24% # Number of instructions fetched each cycle (Total)
system.switch_cpus.fetch.nisnDist::3           339964      5.90%     69.14% # Number of instructions fetched each cycle (Total)
system.switch_cpus.fetch.nisnDist::4           479752      8.33%     77.47% # Number of instructions fetched each cycle (Total)
system.switch_cpus.fetch.nisnDist::5           148249      2.57%     80.05% # Number of instructions fetched each cycle (Total)
system.switch_cpus.fetch.nisnDist::6           281102      4.88%     84.93% # Number of instructions fetched each cycle (Total)
system.switch_cpus.fetch.nisnDist::7           217902      3.78%     88.71% # Number of instructions fetched each cycle (Total)
system.switch_cpus.fetch.nisnDist::8           650197     11.29%    100.00% # Number of instructions fetched each cycle (Total)
system.switch_cpus.fetch.nisnDist::overflows            0      0.00%    100.00% # Number of instructions fetched each cycle (Total)
system.switch_cpus.fetch.nisnDist::min_value            0                       # Number of instructions fetched each cycle (Total)
system.switch_cpus.fetch.nisnDist::max_value            8                       # Number of instructions fetched each cycle (Total)
system.switch_cpus.fetch.nisnDist::total      5759789                       # Number of instructions fetched each cycle (Total)
system.switch_cpus.fetch.branchRate          0.308682                       # Number of branch fetches per cycle
system.switch_cpus.fetch.rate                2.215138                       # Number of inst fetches per cycle
system.switch_cpus.itb.instHits                     0                       # ITB inst hits
system.switch_cpus.itb.instMisses                   0                       # ITB inst misses
system.switch_cpus.itb.readHits                     0                       # DTB read hits
system.switch_cpus.itb.readMisses                   0                       # DTB read misses
system.switch_cpus.itb.writeHits                    0                       # DTB write hits
system.switch_cpus.itb.writeMisses                  0                       # DTB write misses
system.switch_cpus.itb.inserts                      0                       # Number of times an entry is inserted into the TLB
system.switch_cpus.itb.flushTlb                     0                       # Number of times complete TLB was flushed
system.switch_cpus.itb.flushTlbMva                  0                       # Number of times TLB was flushed by MVA
system.switch_cpus.itb.flushTlbMvaAsid              0                       # Number of times TLB was flushed by MVA & ASID
system.switch_cpus.itb.flushTlbAsid                 0                       # Number of times TLB was flushed by ASID
system.switch_cpus.itb.flushedEntries               0                       # Number of entries that have been flushed from TLB
system.switch_cpus.itb.alignFaults                  0                       # Number of TLB faults due to alignment restrictions
system.switch_cpus.itb.prefetchFaults               0                       # Number of TLB faults due to prefetch
system.switch_cpus.itb.domainFaults                 0                       # Number of TLB faults due to domain restrictions
system.switch_cpus.itb.permsFaults                  0                       # Number of TLB faults due to permissions restrictions
system.switch_cpus.itb.readAccesses                 0                       # DTB read accesses
system.switch_cpus.itb.writeAccesses                0                       # DTB write accesses
system.switch_cpus.itb.instAccesses                 0                       # ITB inst accesses
system.switch_cpus.itb.hits                         0                       # Total TLB (inst and data) hits
system.switch_cpus.itb.misses                       0                       # Total TLB (inst and data) misses
system.switch_cpus.itb.accesses                     0                       # Total TLB (inst and data) accesses
system.switch_cpus.itb.stage2_mmu.stage2_tlb.instHits            0                       # ITB inst hits
system.switch_cpus.itb.stage2_mmu.stage2_tlb.instMisses            0                       # ITB inst misses
system.switch_cpus.itb.stage2_mmu.stage2_tlb.readHits            0                       # DTB read hits
system.switch_cpus.itb.stage2_mmu.stage2_tlb.readMisses            0                       # DTB read misses
system.switch_cpus.itb.stage2_mmu.stage2_tlb.writeHits            0                       # DTB write hits
system.switch_cpus.itb.stage2_mmu.stage2_tlb.writeMisses            0                       # DTB write misses
system.switch_cpus.itb.stage2_mmu.stage2_tlb.inserts            0                       # Number of times an entry is inserted into the TLB
system.switch_cpus.itb.stage2_mmu.stage2_tlb.flushTlb            0                       # Number of times complete TLB was flushed
system.switch_cpus.itb.stage2_mmu.stage2_tlb.flushTlbMva            0                       # Number of times TLB was flushed by MVA
system.switch_cpus.itb.stage2_mmu.stage2_tlb.flushTlbMvaAsid            0                       # Number of times TLB was flushed by MVA & ASID
system.switch_cpus.itb.stage2_mmu.stage2_tlb.flushTlbAsid            0                       # Number of times TLB was flushed by ASID
system.switch_cpus.itb.stage2_mmu.stage2_tlb.flushedEntries            0                       # Number of entries that have been flushed from TLB
system.switch_cpus.itb.stage2_mmu.stage2_tlb.alignFaults            0                       # Number of TLB faults due to alignment restrictions
system.switch_cpus.itb.stage2_mmu.stage2_tlb.prefetchFaults            0                       # Number of TLB faults due to prefetch
system.switch_cpus.itb.stage2_mmu.stage2_tlb.domainFaults            0                       # Number of TLB faults due to domain restrictions
system.switch_cpus.itb.stage2_mmu.stage2_tlb.permsFaults            0                       # Number of TLB faults due to permissions restrictions
system.switch_cpus.itb.stage2_mmu.stage2_tlb.readAccesses            0                       # DTB read accesses
system.switch_cpus.itb.stage2_mmu.stage2_tlb.writeAccesses            0                       # DTB write accesses
system.switch_cpus.itb.stage2_mmu.stage2_tlb.instAccesses            0                       # ITB inst accesses
system.switch_cpus.itb.stage2_mmu.stage2_tlb.hits            0                       # Total TLB (inst and data) hits
system.switch_cpus.itb.stage2_mmu.stage2_tlb.misses            0                       # Total TLB (inst and data) misses
system.switch_cpus.itb.stage2_mmu.stage2_tlb.accesses            0                       # Total TLB (inst and data) accesses
system.switch_cpus.itb.stage2_mmu.stage2_tlb.walker.walks            0                       # Table walker walks requested
system.switch_cpus.itb.stage2_mmu.stage2_tlb.walker.requestOrigin_Requested::Data            0                       # Table walker requests started/completed, data/inst
system.switch_cpus.itb.stage2_mmu.stage2_tlb.walker.requestOrigin_Requested::Inst            0                       # Table walker requests started/completed, data/inst
system.switch_cpus.itb.stage2_mmu.stage2_tlb.walker.requestOrigin_Requested::total            0                       # Table walker requests started/completed, data/inst
system.switch_cpus.itb.stage2_mmu.stage2_tlb.walker.requestOrigin_Completed::Data            0                       # Table walker requests started/completed, data/inst
system.switch_cpus.itb.stage2_mmu.stage2_tlb.walker.requestOrigin_Completed::Inst            0                       # Table walker requests started/completed, data/inst
system.switch_cpus.itb.stage2_mmu.stage2_tlb.walker.requestOrigin_Completed::total            0                       # Table walker requests started/completed, data/inst
system.switch_cpus.itb.stage2_mmu.stage2_tlb.walker.requestOrigin::total            0                       # Table walker requests started/completed, data/inst
system.switch_cpus.itb.stage2_mmu.stage2_tlb.walker.power_state.pwrStateResidencyTicks::UNDEFINED   2306085600                       # Cumulative time (in ticks) in various power states
system.switch_cpus.itb.walker.walks                 0                       # Table walker walks requested
system.switch_cpus.itb.walker.requestOrigin_Requested::Data            0                       # Table walker requests started/completed, data/inst
system.switch_cpus.itb.walker.requestOrigin_Requested::Inst            0                       # Table walker requests started/completed, data/inst
system.switch_cpus.itb.walker.requestOrigin_Requested::total            0                       # Table walker requests started/completed, data/inst
system.switch_cpus.itb.walker.requestOrigin_Completed::Data            0                       # Table walker requests started/completed, data/inst
system.switch_cpus.itb.walker.requestOrigin_Completed::Inst            0                       # Table walker requests started/completed, data/inst
system.switch_cpus.itb.walker.requestOrigin_Completed::total            0                       # Table walker requests started/completed, data/inst
system.switch_cpus.itb.walker.requestOrigin::total            0                       # Table walker requests started/completed, data/inst
system.switch_cpus.itb.walker.power_state.pwrStateResidencyTicks::UNDEFINED   2306085600                       # Cumulative time (in ticks) in various power states
system.switch_cpus.lsq0.forwLoads             1621157                       # Number of loads that had data forwarded from stores
system.switch_cpus.lsq0.squashedLoads          752264                       # Number of loads squashed
system.switch_cpus.lsq0.ignoredResponses           52                       # Number of memory responses ignored because the instruction is squashed
system.switch_cpus.lsq0.memOrderViolation          101                       # Number of memory ordering violations
system.switch_cpus.lsq0.squashedStores         144861                       # Number of stores squashed
system.switch_cpus.lsq0.rescheduledLoads            1                       # Number of loads that were rescheduled
system.switch_cpus.lsq0.blockedByCache             17                       # Number of times an access to memory failed due to the cache being blocked
system.switch_cpus.power_state.pwrStateResidencyTicks::OFF   2306085600                       # Cumulative time (in ticks) in various power states
system.switch_cpus.rename.squashCycles          18467                       # Number of cycles rename is squashing
system.switch_cpus.rename.idleCycles           933208                       # Number of cycles rename is idle
system.switch_cpus.rename.blockCycles         2089418                       # Number of cycles rename is blocking
system.switch_cpus.rename.serializeStallCycles         4907                       # count of cycles rename stalledfor serializing inst
system.switch_cpus.rename.runCycles           1163976                       # Number of cycles rename is running
system.switch_cpus.rename.unblockCycles       1549813                       # Number of cycles rename is unblocking
system.switch_cpus.rename.renamedInsts       11799850                       # Number of instructions processed by rename
system.switch_cpus.rename.squashedInsts         33882                       # Number of squashed instructions processed by rename
system.switch_cpus.rename.ROBFullEvents           110                       # Number of times rename has blocked due to ROB full
system.switch_cpus.rename.IQFullEvents         554276                       # Number of times rename has blocked due to IQ full
system.switch_cpus.rename.SQFullEvents           3385                       # Number of times rename has blocked due to SQ full
system.switch_cpus.rename.fullRegistersEvents       988837                       # Number of times there has been no free registers
system.switch_cpus.rename.renamedOperands     14388036                       # Number of destination operands rename has renamed
system.switch_cpus.rename.lookups            17357013                       # Number of register rename lookups that rename has made
system.switch_cpus.rename.intLookups         12393097                       # Number of integer rename lookups
system.switch_cpus.rename.vecLookups               54                       # Number of vector rename lookups
system.switch_cpus.rename.committedMaps      12305965                       # Number of HB maps that are committed
system.switch_cpus.rename.undoneMaps          2082100                       # Number of HB maps that are undone due to squashing
system.switch_cpus.rename.serializing             527                       # count of serializing insts renamed
system.switch_cpus.rename.tempSerializing            4                       # count of temporary serializing insts renamed
system.switch_cpus.rename.skidInsts           4238333                       # count of insts added to the skid buffer
system.switch_cpus.rob.reads                 14956579                       # The number of ROB reads
system.switch_cpus.rob.writes                23905518                       # The number of ROB writes
system.switch_cpus.thread_0.numInsts         10000002                       # Number of Instructions committed
system.switch_cpus.thread_0.numOps           10000149                       # Number of Ops committed
system.switch_cpus.thread_0.numMemRefs              0                       # Number of Memory References
system.tol2bus.trans_dist::ReadResp            235185                       # Transaction distribution
system.tol2bus.trans_dist::WritebackDirty        51048                       # Transaction distribution
system.tol2bus.trans_dist::WritebackClean       190588                       # Transaction distribution
system.tol2bus.trans_dist::CleanEvict            9190                       # Transaction distribution
system.tol2bus.trans_dist::HardPFReq            14045                       # Transaction distribution
system.tol2bus.trans_dist::ReadExReq             4960                       # Transaction distribution
system.tol2bus.trans_dist::ReadExResp            4960                       # Transaction distribution
system.tol2bus.trans_dist::ReadCleanReq            69                       # Transaction distribution
system.tol2bus.trans_dist::ReadSharedReq       235116                       # Transaction distribution
system.tol2bus.pkt_count_system.cpu.icache.mem_side_port::system.l2.cpu_side_port          138                       # Packet count per connected requestor and responder (bytes)
system.tol2bus.pkt_count_system.cpu.dcache.mem_side_port::system.l2.cpu_side_port       720228                       # Packet count per connected requestor and responder (bytes)
system.tol2bus.pkt_count::total                720366                       # Packet count per connected requestor and responder (bytes)
system.tol2bus.pkt_size_system.cpu.icache.mem_side_port::system.l2.cpu_side_port         8832                       # Cumulative packet size per connected requestor and responder (bytes)
system.tol2bus.pkt_size_system.cpu.dcache.mem_side_port::system.l2.cpu_side_port     61459456                       # Cumulative packet size per connected requestor and responder (bytes)
system.tol2bus.pkt_size::total               61468288                       # Cumulative packet size per connected requestor and responder (bytes)
system.tol2bus.snoops                           24795                       # Total snoops (count)
system.tol2bus.snoopTraffic                    199680                       # Total snoop traffic (bytes)
system.tol2bus.snoop_fanout::samples           264940                       # Request fanout histogram
system.tol2bus.snoop_fanout::mean            0.000102                       # Request fanout histogram
system.tol2bus.snoop_fanout::stdev           0.010095                       # Request fanout histogram
system.tol2bus.snoop_fanout::underflows             0      0.00%      0.00% # Request fanout histogram
system.tol2bus.snoop_fanout::0                 264913     99.99%     99.99% # Request fanout histogram
system.tol2bus.snoop_fanout::1                     27      0.01%    100.00% # Request fanout histogram
system.tol2bus.snoop_fanout::2                      0      0.00%    100.00% # Request fanout histogram
system.tol2bus.snoop_fanout::3                      0      0.00%    100.00% # Request fanout histogram
system.tol2bus.snoop_fanout::4                      0      0.00%    100.00% # Request fanout histogram
system.tol2bus.snoop_fanout::overflows              0      0.00%    100.00% # Request fanout histogram
system.tol2bus.snoop_fanout::min_value              0                       # Request fanout histogram
system.tol2bus.snoop_fanout::max_value              1                       # Request fanout histogram
system.tol2bus.snoop_fanout::total             264940                       # Request fanout histogram
system.tol2bus.power_state.pwrStateResidencyTicks::UNDEFINED   2306085600                       # Cumulative time (in ticks) in various power states
system.tol2bus.reqLayer0.occupancy          576210000                       # Layer occupancy (ticks)
system.tol2bus.reqLayer0.utilization             25.0                       # Layer utilization (%)
system.tol2bus.respLayer0.occupancy            138000                       # Layer occupancy (ticks)
system.tol2bus.respLayer0.utilization             0.0                       # Layer utilization (%)
system.tol2bus.respLayer1.occupancy         480152000                       # Layer occupancy (ticks)
system.tol2bus.respLayer1.utilization            20.8                       # Layer utilization (%)
system.voltage_domain.voltage                       1                       # Voltage in Volts

---------- End Simulation Statistics   ----------
