
---------- Begin Simulation Statistics ----------
final_tick                               10901282128400                       # Number of ticks from beginning of simulation (restored from checkpoints and never reset)
host_inst_rate                                 198587                       # Simulator instruction rate (inst/s)
host_mem_usage                               17079136                       # Number of bytes of host memory used
host_op_rate                                   209012                       # Simulator op (including micro ops) rate (op/s)
host_seconds                                     5.04                       # Real time elapsed on the host
host_tick_rate                              268446469                       # Simulator tick rate (ticks/s)
sim_freq                                 1000000000000                       # Frequency of simulated ticks
sim_insts                                     1000026                       # Number of instructions simulated
sim_ops                                       1052531                       # Number of ops (including micro ops) simulated
sim_seconds                                  0.001352                       # Number of seconds simulated
sim_ticks                                  1351832400                       # Number of ticks simulated
system.cpu.Branches                                 6                       # Number of branches fetched
system.cpu.committedInsts                          23                       # Number of instructions committed
system.cpu.committedOps                            25                       # Number of ops (including micro ops) committed
system.cpu.idle_fraction                            0                       # Percentage of idle cycles
system.cpu.not_idle_fraction                        1                       # Percentage of non-idle cycles
system.cpu.numCycles                               25                       # number of cpu cycles simulated
system.cpu.numWorkItemsCompleted                    0                       # number of work items this cpu completed
system.cpu.numWorkItemsStarted                      0                       # number of work items this cpu started
system.cpu.num_busy_cycles                         25                       # Number of busy cycles
system.cpu.num_cc_register_reads                   15                       # number of times the CC registers were read
system.cpu.num_cc_register_writes                  15                       # number of times the CC registers were written
system.cpu.num_conditional_control_insts            6                       # number of instructions that are conditional controls
system.cpu.num_fp_alu_accesses                      0                       # Number of float alu accesses
system.cpu.num_fp_insts                             0                       # number of float instructions
system.cpu.num_fp_register_reads                    0                       # number of times the floating registers were read
system.cpu.num_fp_register_writes                   0                       # number of times the floating registers were written
system.cpu.num_func_calls                           0                       # number of times a function call or return occured
system.cpu.num_idle_cycles                          0                       # Number of idle cycles
system.cpu.num_int_alu_accesses                    20                       # Number of integer alu accesses
system.cpu.num_int_insts                           20                       # number of integer instructions
system.cpu.num_int_register_reads                  27                       # number of times the integer registers were read
system.cpu.num_int_register_writes                 21                       # number of times the integer registers were written
system.cpu.num_load_insts                           7                       # Number of load instructions
system.cpu.num_mem_refs                             7                       # number of memory refs
system.cpu.num_store_insts                          0                       # Number of store instructions
system.cpu.num_vec_alu_accesses                     0                       # Number of vector alu accesses
system.cpu.num_vec_insts                            0                       # number of vector instructions
system.cpu.num_vec_register_reads                   0                       # number of times the vector registers were read
system.cpu.num_vec_register_writes                  0                       # number of times the vector registers were written
system.cpu.op_class::No_OpClass                     0      0.00%      0.00% # Class of executed instruction
system.cpu.op_class::IntAlu                        18     72.00%     72.00% # Class of executed instruction
system.cpu.op_class::IntMult                        0      0.00%     72.00% # Class of executed instruction
system.cpu.op_class::IntDiv                         0      0.00%     72.00% # Class of executed instruction
system.cpu.op_class::FloatAdd                       0      0.00%     72.00% # Class of executed instruction
system.cpu.op_class::FloatCmp                       0      0.00%     72.00% # Class of executed instruction
system.cpu.op_class::FloatCvt                       0      0.00%     72.00% # Class of executed instruction
system.cpu.op_class::FloatMult                      0      0.00%     72.00% # Class of executed instruction
system.cpu.op_class::FloatMultAcc                   0      0.00%     72.00% # Class of executed instruction
system.cpu.op_class::FloatDiv                       0      0.00%     72.00% # Class of executed instruction
system.cpu.op_class::FloatMisc                      0      0.00%     72.00% # Class of executed instruction
system.cpu.op_class::FloatSqrt                      0      0.00%     72.00% # Class of executed instruction
system.cpu.op_class::SimdAdd                        0      0.00%     72.00% # Class of executed instruction
system.cpu.op_class::SimdAddAcc                     0      0.00%     72.00% # Class of executed instruction
system.cpu.op_class::SimdAlu                        0      0.00%     72.00% # Class of executed instruction
system.cpu.op_class::SimdCmp                        0      0.00%     72.00% # Class of executed instruction
system.cpu.op_class::SimdCvt                        0      0.00%     72.00% # Class of executed instruction
system.cpu.op_class::SimdMisc                       0      0.00%     72.00% # Class of executed instruction
system.cpu.op_class::SimdMult                       0      0.00%     72.00% # Class of executed instruction
system.cpu.op_class::SimdMultAcc                    0      0.00%     72.00% # Class of executed instruction
system.cpu.op_class::SimdShift                      0      0.00%     72.00% # Class of executed instruction
system.cpu.op_class::SimdShiftAcc                   0      0.00%     72.00% # Class of executed instruction
system.cpu.op_class::SimdDiv                        0      0.00%     72.00% # Class of executed instruction
system.cpu.op_class::SimdSqrt                       0      0.00%     72.00% # Class of executed instruction
system.cpu.op_class::SimdFloatAdd                   0      0.00%     72.00% # Class of executed instruction
system.cpu.op_class::SimdFloatAlu                   0      0.00%     72.00% # Class of executed instruction
system.cpu.op_class::SimdFloatCmp                   0      0.00%     72.00% # Class of executed instruction
system.cpu.op_class::SimdFloatCvt                   0      0.00%     72.00% # Class of executed instruction
system.cpu.op_class::SimdFloatDiv                   0      0.00%     72.00% # Class of executed instruction
system.cpu.op_class::SimdFloatMisc                  0      0.00%     72.00% # Class of executed instruction
system.cpu.op_class::SimdFloatMult                  0      0.00%     72.00% # Class of executed instruction
system.cpu.op_class::SimdFloatMultAcc               0      0.00%     72.00% # Class of executed instruction
system.cpu.op_class::SimdFloatSqrt                  0      0.00%     72.00% # Class of executed instruction
system.cpu.op_class::SimdReduceAdd                  0      0.00%     72.00% # Class of executed instruction
system.cpu.op_class::SimdReduceAlu                  0      0.00%     72.00% # Class of executed instruction
system.cpu.op_class::SimdReduceCmp                  0      0.00%     72.00% # Class of executed instruction
system.cpu.op_class::SimdFloatReduceAdd             0      0.00%     72.00% # Class of executed instruction
system.cpu.op_class::SimdFloatReduceCmp             0      0.00%     72.00% # Class of executed instruction
system.cpu.op_class::SimdAes                        0      0.00%     72.00% # Class of executed instruction
system.cpu.op_class::SimdAesMix                     0      0.00%     72.00% # Class of executed instruction
system.cpu.op_class::SimdSha1Hash                   0      0.00%     72.00% # Class of executed instruction
system.cpu.op_class::SimdSha1Hash2                  0      0.00%     72.00% # Class of executed instruction
system.cpu.op_class::SimdSha256Hash                 0      0.00%     72.00% # Class of executed instruction
system.cpu.op_class::SimdSha256Hash2                0      0.00%     72.00% # Class of executed instruction
system.cpu.op_class::SimdShaSigma2                  0      0.00%     72.00% # Class of executed instruction
system.cpu.op_class::SimdShaSigma3                  0      0.00%     72.00% # Class of executed instruction
system.cpu.op_class::SimdPredAlu                    0      0.00%     72.00% # Class of executed instruction
system.cpu.op_class::MemRead                        7     28.00%    100.00% # Class of executed instruction
system.cpu.op_class::MemWrite                       0      0.00%    100.00% # Class of executed instruction
system.cpu.op_class::FloatMemRead                   0      0.00%    100.00% # Class of executed instruction
system.cpu.op_class::FloatMemWrite                  0      0.00%    100.00% # Class of executed instruction
system.cpu.op_class::IprAccess                      0      0.00%    100.00% # Class of executed instruction
system.cpu.op_class::InstPrefetch                   0      0.00%    100.00% # Class of executed instruction
system.cpu.op_class::total                         25                       # Class of executed instruction
system.cpu.workload.numSyscalls                     1                       # Number of system calls
system.membus.snoop_filter.hit_multi_requests            0                       # Number of requests hitting in the snoop filter with multiple (>1) holders of the requested data.
system.membus.snoop_filter.hit_multi_snoops            0                       # Number of snoops hitting in the snoop filter with multiple (>1) holders of the requested data.
system.membus.snoop_filter.hit_single_requests        62759                       # Number of requests hitting in the snoop filter with a single holder of the requested data.
system.membus.snoop_filter.hit_single_snoops            0                       # Number of snoops hitting in the snoop filter with a single holder of the requested data.
system.membus.snoop_filter.tot_requests        133991                       # Total number of requests made to the snoop filter.
system.membus.snoop_filter.tot_snoops               0                       # Total number of snoops made to the snoop filter.
system.switch_cpus.cc_regfile_reads            556458                       # number of cc regfile reads
system.switch_cpus.cc_regfile_writes           556581                       # number of cc regfile writes
system.switch_cpus.committedInsts             1000003                       # Number of Instructions Simulated
system.switch_cpus.committedOps               1052506                       # Number of Ops (including micro ops) Simulated
system.switch_cpus.cpi                       3.379546                       # CPI: Cycles Per Instruction
system.switch_cpus.cpi_total                 3.379546                       # CPI: Total CPI of All Threads
system.switch_cpus.idleCycles                    8481                       # Total number of cycles that the CPU has spent unscheduled due to idling
system.switch_cpus.iew.branchMispredicts          485                       # Number of branch mispredicts detected at execute
system.switch_cpus.iew.exec_branches           223041                       # Number of branches executed
system.switch_cpus.iew.exec_nop                    27                       # number of nop insts executed
system.switch_cpus.iew.exec_rate             0.429295                       # Inst execution rate
system.switch_cpus.iew.exec_refs               743048                       # number of memory reference insts executed
system.switch_cpus.iew.exec_stores              12895                       # Number of stores executed
system.switch_cpus.iew.exec_swp                     0                       # number of swp insts executed
system.switch_cpus.iew.iewBlockCycles            7523                       # Number of cycles IEW is blocking
system.switch_cpus.iew.iewDispLoadInsts        344332                       # Number of dispatched load instructions
system.switch_cpus.iew.iewDispNonSpecInsts           55                       # Number of dispatched non-speculative instructions
system.switch_cpus.iew.iewDispSquashedInsts            0                       # Number of squashed instructions skipped by dispatch
system.switch_cpus.iew.iewDispStoreInsts        13304                       # Number of dispatched store instructions
system.switch_cpus.iew.iewDispatchedInsts      1072533                       # Number of instructions dispatched to IQ
system.switch_cpus.iew.iewExecLoadInsts        730153                       # Number of load instructions executed
system.switch_cpus.iew.iewExecSquashedInsts          487                       # Number of squashed instructions skipped in execute
system.switch_cpus.iew.iewExecutedInsts       1450825                       # Number of executed instructions
system.switch_cpus.iew.iewIQFullEvents              0                       # Number of times the IQ has become full, causing a stall
system.switch_cpus.iew.iewIdleCycles                0                       # Number of cycles IEW is idle
system.switch_cpus.iew.iewLSQFullEvents             0                       # Number of times the LSQ has become full, causing a stall
system.switch_cpus.iew.iewSquashCycles            474                       # Number of cycles IEW is squashing
system.switch_cpus.iew.iewUnblockCycles             1                       # Number of cycles IEW is unblocking
system.switch_cpus.iew.memOrderViolationEvents            4                       # Number of memory order violations
system.switch_cpus.iew.predictedNotTakenIncorrect          286                       # Number of branches that were predicted not taken incorrectly
system.switch_cpus.iew.predictedTakenIncorrect          199                       # Number of branches that were predicted taken incorrectly
system.switch_cpus.iew.wb_consumers           1350988                       # num instructions consuming a value
system.switch_cpus.iew.wb_count               1060091                       # cumulative count of insts written-back
system.switch_cpus.iew.wb_fanout             0.591981                       # average fanout of values written-back
system.switch_cpus.iew.wb_producers            799759                       # num instructions producing a value
system.switch_cpus.iew.wb_rate               0.313678                       # insts written-back per cycle
system.switch_cpus.iew.wb_sent                1060207                       # cumulative count of insts sent to commit
system.switch_cpus.int_regfile_reads          1574596                       # number of integer regfile reads
system.switch_cpus.int_regfile_writes          876728                       # number of integer regfile writes
system.switch_cpus.ipc                       0.295898                       # IPC: Instructions Per Cycle
system.switch_cpus.ipc_total                 0.295898                       # IPC: Total IPC of All Threads
system.switch_cpus.iq.FU_type_0::No_OpClass           49      0.00%      0.00% # Type of FU issued
system.switch_cpus.iq.FU_type_0::IntAlu        707723     48.76%     48.77% # Type of FU issued
system.switch_cpus.iq.FU_type_0::IntMult           37      0.00%     48.77% # Type of FU issued
system.switch_cpus.iq.FU_type_0::IntDiv             1      0.00%     48.77% # Type of FU issued
system.switch_cpus.iq.FU_type_0::FloatAdd            0      0.00%     48.77% # Type of FU issued
system.switch_cpus.iq.FU_type_0::FloatCmp            0      0.00%     48.77% # Type of FU issued
system.switch_cpus.iq.FU_type_0::FloatCvt            1      0.00%     48.77% # Type of FU issued
system.switch_cpus.iq.FU_type_0::FloatMult            0      0.00%     48.77% # Type of FU issued
system.switch_cpus.iq.FU_type_0::FloatMultAcc            0      0.00%     48.77% # Type of FU issued
system.switch_cpus.iq.FU_type_0::FloatDiv            0      0.00%     48.77% # Type of FU issued
system.switch_cpus.iq.FU_type_0::FloatMisc           25      0.00%     48.77% # Type of FU issued
system.switch_cpus.iq.FU_type_0::FloatSqrt            0      0.00%     48.77% # Type of FU issued
system.switch_cpus.iq.FU_type_0::SimdAdd            6      0.00%     48.77% # Type of FU issued
system.switch_cpus.iq.FU_type_0::SimdAddAcc            0      0.00%     48.77% # Type of FU issued
system.switch_cpus.iq.FU_type_0::SimdAlu           10      0.00%     48.77% # Type of FU issued
system.switch_cpus.iq.FU_type_0::SimdCmp            8      0.00%     48.77% # Type of FU issued
system.switch_cpus.iq.FU_type_0::SimdCvt            0      0.00%     48.77% # Type of FU issued
system.switch_cpus.iq.FU_type_0::SimdMisc           30      0.00%     48.78% # Type of FU issued
system.switch_cpus.iq.FU_type_0::SimdMult            0      0.00%     48.78% # Type of FU issued
system.switch_cpus.iq.FU_type_0::SimdMultAcc            0      0.00%     48.78% # Type of FU issued
system.switch_cpus.iq.FU_type_0::SimdShift            0      0.00%     48.78% # Type of FU issued
system.switch_cpus.iq.FU_type_0::SimdShiftAcc            0      0.00%     48.78% # Type of FU issued
system.switch_cpus.iq.FU_type_0::SimdDiv            0      0.00%     48.78% # Type of FU issued
system.switch_cpus.iq.FU_type_0::SimdSqrt            0      0.00%     48.78% # Type of FU issued
system.switch_cpus.iq.FU_type_0::SimdFloatAdd            0      0.00%     48.78% # Type of FU issued
system.switch_cpus.iq.FU_type_0::SimdFloatAlu            0      0.00%     48.78% # Type of FU issued
system.switch_cpus.iq.FU_type_0::SimdFloatCmp            0      0.00%     48.78% # Type of FU issued
system.switch_cpus.iq.FU_type_0::SimdFloatCvt            0      0.00%     48.78% # Type of FU issued
system.switch_cpus.iq.FU_type_0::SimdFloatDiv            0      0.00%     48.78% # Type of FU issued
system.switch_cpus.iq.FU_type_0::SimdFloatMisc            0      0.00%     48.78% # Type of FU issued
system.switch_cpus.iq.FU_type_0::SimdFloatMult            0      0.00%     48.78% # Type of FU issued
system.switch_cpus.iq.FU_type_0::SimdFloatMultAcc            0      0.00%     48.78% # Type of FU issued
system.switch_cpus.iq.FU_type_0::SimdFloatSqrt            0      0.00%     48.78% # Type of FU issued
system.switch_cpus.iq.FU_type_0::SimdReduceAdd            0      0.00%     48.78% # Type of FU issued
system.switch_cpus.iq.FU_type_0::SimdReduceAlu            0      0.00%     48.78% # Type of FU issued
system.switch_cpus.iq.FU_type_0::SimdReduceCmp            0      0.00%     48.78% # Type of FU issued
system.switch_cpus.iq.FU_type_0::SimdFloatReduceAdd            0      0.00%     48.78% # Type of FU issued
system.switch_cpus.iq.FU_type_0::SimdFloatReduceCmp            0      0.00%     48.78% # Type of FU issued
system.switch_cpus.iq.FU_type_0::SimdAes            0      0.00%     48.78% # Type of FU issued
system.switch_cpus.iq.FU_type_0::SimdAesMix            0      0.00%     48.78% # Type of FU issued
system.switch_cpus.iq.FU_type_0::SimdSha1Hash            0      0.00%     48.78% # Type of FU issued
system.switch_cpus.iq.FU_type_0::SimdSha1Hash2            0      0.00%     48.78% # Type of FU issued
system.switch_cpus.iq.FU_type_0::SimdSha256Hash            0      0.00%     48.78% # Type of FU issued
system.switch_cpus.iq.FU_type_0::SimdSha256Hash2            0      0.00%     48.78% # Type of FU issued
system.switch_cpus.iq.FU_type_0::SimdShaSigma2            0      0.00%     48.78% # Type of FU issued
system.switch_cpus.iq.FU_type_0::SimdShaSigma3            0      0.00%     48.78% # Type of FU issued
system.switch_cpus.iq.FU_type_0::SimdPredAlu            0      0.00%     48.78% # Type of FU issued
system.switch_cpus.iq.FU_type_0::MemRead       730495     50.33%     99.11% # Type of FU issued
system.switch_cpus.iq.FU_type_0::MemWrite        12930      0.89%    100.00% # Type of FU issued
system.switch_cpus.iq.FU_type_0::FloatMemRead            0      0.00%    100.00% # Type of FU issued
system.switch_cpus.iq.FU_type_0::FloatMemWrite            0      0.00%    100.00% # Type of FU issued
system.switch_cpus.iq.FU_type_0::IprAccess            0      0.00%    100.00% # Type of FU issued
system.switch_cpus.iq.FU_type_0::InstPrefetch            0      0.00%    100.00% # Type of FU issued
system.switch_cpus.iq.FU_type_0::total        1451315                       # Type of FU issued
system.switch_cpus.iq.fp_alu_accesses               0                       # Number of floating point alu accesses
system.switch_cpus.iq.fp_inst_queue_reads            0                       # Number of floating instruction queue reads
system.switch_cpus.iq.fp_inst_queue_wakeup_accesses            0                       # Number of floating instruction queue wakeup accesses
system.switch_cpus.iq.fp_inst_queue_writes            0                       # Number of floating instruction queue writes
system.switch_cpus.iq.fu_busy_cnt              562050                       # FU busy when requested
system.switch_cpus.iq.fu_busy_rate           0.387269                       # FU busy rate (busy events/executed inst)
system.switch_cpus.iq.fu_full::No_OpClass            0      0.00%      0.00% # attempts to use FU when none available
system.switch_cpus.iq.fu_full::IntAlu           56495     10.05%     10.05% # attempts to use FU when none available
system.switch_cpus.iq.fu_full::IntMult              0      0.00%     10.05% # attempts to use FU when none available
system.switch_cpus.iq.fu_full::IntDiv               0      0.00%     10.05% # attempts to use FU when none available
system.switch_cpus.iq.fu_full::FloatAdd             0      0.00%     10.05% # attempts to use FU when none available
system.switch_cpus.iq.fu_full::FloatCmp             0      0.00%     10.05% # attempts to use FU when none available
system.switch_cpus.iq.fu_full::FloatCvt             0      0.00%     10.05% # attempts to use FU when none available
system.switch_cpus.iq.fu_full::FloatMult            0      0.00%     10.05% # attempts to use FU when none available
system.switch_cpus.iq.fu_full::FloatMultAcc            0      0.00%     10.05% # attempts to use FU when none available
system.switch_cpus.iq.fu_full::FloatDiv             0      0.00%     10.05% # attempts to use FU when none available
system.switch_cpus.iq.fu_full::FloatMisc            0      0.00%     10.05% # attempts to use FU when none available
system.switch_cpus.iq.fu_full::FloatSqrt            0      0.00%     10.05% # attempts to use FU when none available
system.switch_cpus.iq.fu_full::SimdAdd              0      0.00%     10.05% # attempts to use FU when none available
system.switch_cpus.iq.fu_full::SimdAddAcc            0      0.00%     10.05% # attempts to use FU when none available
system.switch_cpus.iq.fu_full::SimdAlu              0      0.00%     10.05% # attempts to use FU when none available
system.switch_cpus.iq.fu_full::SimdCmp              2      0.00%     10.05% # attempts to use FU when none available
system.switch_cpus.iq.fu_full::SimdCvt              0      0.00%     10.05% # attempts to use FU when none available
system.switch_cpus.iq.fu_full::SimdMisc             0      0.00%     10.05% # attempts to use FU when none available
system.switch_cpus.iq.fu_full::SimdMult             0      0.00%     10.05% # attempts to use FU when none available
system.switch_cpus.iq.fu_full::SimdMultAcc            0      0.00%     10.05% # attempts to use FU when none available
system.switch_cpus.iq.fu_full::SimdShift            0      0.00%     10.05% # attempts to use FU when none available
system.switch_cpus.iq.fu_full::SimdShiftAcc            0      0.00%     10.05% # attempts to use FU when none available
system.switch_cpus.iq.fu_full::SimdDiv              0      0.00%     10.05% # attempts to use FU when none available
system.switch_cpus.iq.fu_full::SimdSqrt             0      0.00%     10.05% # attempts to use FU when none available
system.switch_cpus.iq.fu_full::SimdFloatAdd            0      0.00%     10.05% # attempts to use FU when none available
system.switch_cpus.iq.fu_full::SimdFloatAlu            0      0.00%     10.05% # attempts to use FU when none available
system.switch_cpus.iq.fu_full::SimdFloatCmp            0      0.00%     10.05% # attempts to use FU when none available
system.switch_cpus.iq.fu_full::SimdFloatCvt            0      0.00%     10.05% # attempts to use FU when none available
system.switch_cpus.iq.fu_full::SimdFloatDiv            0      0.00%     10.05% # attempts to use FU when none available
system.switch_cpus.iq.fu_full::SimdFloatMisc            0      0.00%     10.05% # attempts to use FU when none available
system.switch_cpus.iq.fu_full::SimdFloatMult            0      0.00%     10.05% # attempts to use FU when none available
system.switch_cpus.iq.fu_full::SimdFloatMultAcc            0      0.00%     10.05% # attempts to use FU when none available
system.switch_cpus.iq.fu_full::SimdFloatSqrt            0      0.00%     10.05% # attempts to use FU when none available
system.switch_cpus.iq.fu_full::SimdReduceAdd            0      0.00%     10.05% # attempts to use FU when none available
system.switch_cpus.iq.fu_full::SimdReduceAlu            0      0.00%     10.05% # attempts to use FU when none available
system.switch_cpus.iq.fu_full::SimdReduceCmp            0      0.00%     10.05% # attempts to use FU when none available
system.switch_cpus.iq.fu_full::SimdFloatReduceAdd            0      0.00%     10.05% # attempts to use FU when none available
system.switch_cpus.iq.fu_full::SimdFloatReduceCmp            0      0.00%     10.05% # attempts to use FU when none available
system.switch_cpus.iq.fu_full::SimdAes              0      0.00%     10.05% # attempts to use FU when none available
system.switch_cpus.iq.fu_full::SimdAesMix            0      0.00%     10.05% # attempts to use FU when none available
system.switch_cpus.iq.fu_full::SimdSha1Hash            0      0.00%     10.05% # attempts to use FU when none available
system.switch_cpus.iq.fu_full::SimdSha1Hash2            0      0.00%     10.05% # attempts to use FU when none available
system.switch_cpus.iq.fu_full::SimdSha256Hash            0      0.00%     10.05% # attempts to use FU when none available
system.switch_cpus.iq.fu_full::SimdSha256Hash2            0      0.00%     10.05% # attempts to use FU when none available
system.switch_cpus.iq.fu_full::SimdShaSigma2            0      0.00%     10.05% # attempts to use FU when none available
system.switch_cpus.iq.fu_full::SimdShaSigma3            0      0.00%     10.05% # attempts to use FU when none available
system.switch_cpus.iq.fu_full::SimdPredAlu            0      0.00%     10.05% # attempts to use FU when none available
system.switch_cpus.iq.fu_full::MemRead         505146     89.88%     99.93% # attempts to use FU when none available
system.switch_cpus.iq.fu_full::MemWrite           407      0.07%    100.00% # attempts to use FU when none available
system.switch_cpus.iq.fu_full::FloatMemRead            0      0.00%    100.00% # attempts to use FU when none available
system.switch_cpus.iq.fu_full::FloatMemWrite            0      0.00%    100.00% # attempts to use FU when none available
system.switch_cpus.iq.fu_full::IprAccess            0      0.00%    100.00% # attempts to use FU when none available
system.switch_cpus.iq.fu_full::InstPrefetch            0      0.00%    100.00% # attempts to use FU when none available
system.switch_cpus.iq.int_alu_accesses        2013148                       # Number of integer alu accesses
system.switch_cpus.iq.int_inst_queue_reads      6836294                       # Number of integer instruction queue reads
system.switch_cpus.iq.int_inst_queue_wakeup_accesses      1060007                       # Number of integer instruction queue wakeup accesses
system.switch_cpus.iq.int_inst_queue_writes      1092066                       # Number of integer instruction queue writes
system.switch_cpus.iq.iqInstsAdded            1072451                       # Number of instructions added to the IQ (excludes non-spec)
system.switch_cpus.iq.iqInstsIssued           1451315                       # Number of instructions issued
system.switch_cpus.iq.iqNonSpecInstsAdded           55                       # Number of non-speculative instructions added to the IQ
system.switch_cpus.iq.iqSquashedInstsExamined        19866                       # Number of squashed instructions iterated over during squash; mainly for profiling
system.switch_cpus.iq.iqSquashedInstsIssued          841                       # Number of squashed instructions issued
system.switch_cpus.iq.iqSquashedNonSpecRemoved           30                       # Number of squashed non-spec instructions that were removed
system.switch_cpus.iq.iqSquashedOperandsExamined        19592                       # Number of squashed operands that are examined and possibly removed from graph
system.switch_cpus.iq.issued_per_cycle::samples      3371075                       # Number of insts issued each cycle
system.switch_cpus.iq.issued_per_cycle::mean     0.430520                       # Number of insts issued each cycle
system.switch_cpus.iq.issued_per_cycle::stdev     0.789143                       # Number of insts issued each cycle
system.switch_cpus.iq.issued_per_cycle::underflows            0      0.00%      0.00% # Number of insts issued each cycle
system.switch_cpus.iq.issued_per_cycle::0      2421291     71.83%     71.83% # Number of insts issued each cycle
system.switch_cpus.iq.issued_per_cycle::1       580539     17.22%     89.05% # Number of insts issued each cycle
system.switch_cpus.iq.issued_per_cycle::2       239548      7.11%     96.15% # Number of insts issued each cycle
system.switch_cpus.iq.issued_per_cycle::3       127117      3.77%     99.92% # Number of insts issued each cycle
system.switch_cpus.iq.issued_per_cycle::4         2571      0.08%    100.00% # Number of insts issued each cycle
system.switch_cpus.iq.issued_per_cycle::5            9      0.00%    100.00% # Number of insts issued each cycle
system.switch_cpus.iq.issued_per_cycle::6            0      0.00%    100.00% # Number of insts issued each cycle
system.switch_cpus.iq.issued_per_cycle::7            0      0.00%    100.00% # Number of insts issued each cycle
system.switch_cpus.iq.issued_per_cycle::8            0      0.00%    100.00% # Number of insts issued each cycle
system.switch_cpus.iq.issued_per_cycle::overflows            0      0.00%    100.00% # Number of insts issued each cycle
system.switch_cpus.iq.issued_per_cycle::min_value            0                       # Number of insts issued each cycle
system.switch_cpus.iq.issued_per_cycle::max_value            5                       # Number of insts issued each cycle
system.switch_cpus.iq.issued_per_cycle::total      3371075                       # Number of insts issued each cycle
system.switch_cpus.iq.rate                   0.429440                       # Inst issue rate
system.switch_cpus.iq.vec_alu_accesses            168                       # Number of vector alu accesses
system.switch_cpus.iq.vec_inst_queue_reads          299                       # Number of vector instruction queue reads
system.switch_cpus.iq.vec_inst_queue_wakeup_accesses           84                       # Number of vector instruction queue wakeup accesses
system.switch_cpus.iq.vec_inst_queue_writes          310                       # Number of vector instruction queue writes
system.switch_cpus.memDep0.conflictingLoads          188                       # Number of conflicting loads.
system.switch_cpus.memDep0.conflictingStores           82                       # Number of conflicting stores.
system.switch_cpus.memDep0.insertedLoads       344332                       # Number of loads inserted to the mem dependence unit.
system.switch_cpus.memDep0.insertedStores        13304                       # Number of stores inserted to the mem dependence unit.
system.switch_cpus.misc_regfile_reads         2210580                       # number of misc regfile reads
system.switch_cpus.misc_regfile_writes             25                       # number of misc regfile writes
system.switch_cpus.numCycles                  3379556                       # number of cpu cycles simulated
system.switch_cpus.numWorkItemsCompleted            0                       # number of work items this cpu completed
system.switch_cpus.numWorkItemsStarted              0                       # number of work items this cpu started
system.switch_cpus.timesIdled                      69                       # Number of times that the entire CPU went into an idle state and unscheduled itself
system.switch_cpus.vec_regfile_reads               73                       # number of vector regfile reads
system.switch_cpus.vec_regfile_writes             110                       # number of vector regfile writes
system.tol2bus.snoop_filter.hit_multi_requests            0                       # Number of requests hitting in the snoop filter with multiple (>1) holders of the requested data.
system.tol2bus.snoop_filter.hit_multi_snoops            0                       # Number of snoops hitting in the snoop filter with multiple (>1) holders of the requested data.
system.tol2bus.snoop_filter.hit_single_requests       123623                       # Number of requests hitting in the snoop filter with a single holder of the requested data.
system.tol2bus.snoop_filter.hit_single_snoops          157                       # Number of snoops hitting in the snoop filter with a single holder of the requested data.
system.tol2bus.snoop_filter.tot_requests       247603                       # Total number of requests made to the snoop filter.
system.tol2bus.snoop_filter.tot_snoops            157                       # Total number of snoops made to the snoop filter.
system.clk_domain.clock                          1000                       # Clock period in ticks
system.cpu.dcache.demand_hits::.cpu.data            3                       # number of demand (read+write) hits
system.cpu.dcache.demand_hits::.switch_cpus.data       105293                       # number of demand (read+write) hits
system.cpu.dcache.demand_hits::total           105296                       # number of demand (read+write) hits
system.cpu.dcache.overall_hits::.cpu.data            3                       # number of overall hits
system.cpu.dcache.overall_hits::.switch_cpus.data       105293                       # number of overall hits
system.cpu.dcache.overall_hits::total          105296                       # number of overall hits
system.cpu.dcache.demand_misses::.cpu.data            5                       # number of demand (read+write) misses
system.cpu.dcache.demand_misses::.switch_cpus.data       251977                       # number of demand (read+write) misses
system.cpu.dcache.demand_misses::total         251982                       # number of demand (read+write) misses
system.cpu.dcache.overall_misses::.cpu.data            5                       # number of overall misses
system.cpu.dcache.overall_misses::.switch_cpus.data       251977                       # number of overall misses
system.cpu.dcache.overall_misses::total        251982                       # number of overall misses
system.cpu.dcache.demand_miss_latency::.switch_cpus.data  15574403999                       # number of demand (read+write) miss cycles
system.cpu.dcache.demand_miss_latency::total  15574403999                       # number of demand (read+write) miss cycles
system.cpu.dcache.overall_miss_latency::.switch_cpus.data  15574403999                       # number of overall miss cycles
system.cpu.dcache.overall_miss_latency::total  15574403999                       # number of overall miss cycles
system.cpu.dcache.demand_accesses::.cpu.data            8                       # number of demand (read+write) accesses
system.cpu.dcache.demand_accesses::.switch_cpus.data       357270                       # number of demand (read+write) accesses
system.cpu.dcache.demand_accesses::total       357278                       # number of demand (read+write) accesses
system.cpu.dcache.overall_accesses::.cpu.data            8                       # number of overall (read+write) accesses
system.cpu.dcache.overall_accesses::.switch_cpus.data       357270                       # number of overall (read+write) accesses
system.cpu.dcache.overall_accesses::total       357278                       # number of overall (read+write) accesses
system.cpu.dcache.demand_miss_rate::.cpu.data     0.625000                       # miss rate for demand accesses
system.cpu.dcache.demand_miss_rate::.switch_cpus.data     0.705285                       # miss rate for demand accesses
system.cpu.dcache.demand_miss_rate::total     0.705283                       # miss rate for demand accesses
system.cpu.dcache.overall_miss_rate::.cpu.data     0.625000                       # miss rate for overall accesses
system.cpu.dcache.overall_miss_rate::.switch_cpus.data     0.705285                       # miss rate for overall accesses
system.cpu.dcache.overall_miss_rate::total     0.705283                       # miss rate for overall accesses
system.cpu.dcache.demand_avg_miss_latency::.switch_cpus.data 61808.831754                       # average overall miss latency
system.cpu.dcache.demand_avg_miss_latency::total 61807.605301                       # average overall miss latency
system.cpu.dcache.overall_avg_miss_latency::.switch_cpus.data 61808.831754                       # average overall miss latency
system.cpu.dcache.overall_avg_miss_latency::total 61807.605301                       # average overall miss latency
system.cpu.dcache.blocked_cycles::no_mshrs      1743074                       # number of cycles access was blocked
system.cpu.dcache.blocked_cycles::no_targets         3819                       # number of cycles access was blocked
system.cpu.dcache.blocked::no_mshrs             84857                       # number of cycles access was blocked
system.cpu.dcache.blocked::no_targets              84                       # number of cycles access was blocked
system.cpu.dcache.avg_blocked_cycles::no_mshrs    20.541311                       # average number of cycles each access was blocked
system.cpu.dcache.avg_blocked_cycles::no_targets    45.464286                       # average number of cycles each access was blocked
system.cpu.dcache.writebacks::.writebacks       123623                       # number of writebacks
system.cpu.dcache.writebacks::total            123623                       # number of writebacks
system.cpu.dcache.demand_mshr_hits::.switch_cpus.data       128097                       # number of demand (read+write) MSHR hits
system.cpu.dcache.demand_mshr_hits::total       128097                       # number of demand (read+write) MSHR hits
system.cpu.dcache.overall_mshr_hits::.switch_cpus.data       128097                       # number of overall MSHR hits
system.cpu.dcache.overall_mshr_hits::total       128097                       # number of overall MSHR hits
system.cpu.dcache.demand_mshr_misses::.switch_cpus.data       123880                       # number of demand (read+write) MSHR misses
system.cpu.dcache.demand_mshr_misses::total       123880                       # number of demand (read+write) MSHR misses
system.cpu.dcache.overall_mshr_misses::.switch_cpus.data       123880                       # number of overall MSHR misses
system.cpu.dcache.overall_mshr_misses::total       123880                       # number of overall MSHR misses
system.cpu.dcache.demand_mshr_miss_latency::.switch_cpus.data   7005945600                       # number of demand (read+write) MSHR miss cycles
system.cpu.dcache.demand_mshr_miss_latency::total   7005945600                       # number of demand (read+write) MSHR miss cycles
system.cpu.dcache.overall_mshr_miss_latency::.switch_cpus.data   7005945600                       # number of overall MSHR miss cycles
system.cpu.dcache.overall_mshr_miss_latency::total   7005945600                       # number of overall MSHR miss cycles
system.cpu.dcache.demand_mshr_miss_rate::.switch_cpus.data     0.346741                       # mshr miss rate for demand accesses
system.cpu.dcache.demand_mshr_miss_rate::total     0.346733                       # mshr miss rate for demand accesses
system.cpu.dcache.overall_mshr_miss_rate::.switch_cpus.data     0.346741                       # mshr miss rate for overall accesses
system.cpu.dcache.overall_mshr_miss_rate::total     0.346733                       # mshr miss rate for overall accesses
system.cpu.dcache.demand_avg_mshr_miss_latency::.switch_cpus.data 56554.291250                       # average overall mshr miss latency
system.cpu.dcache.demand_avg_mshr_miss_latency::total 56554.291250                       # average overall mshr miss latency
system.cpu.dcache.overall_avg_mshr_miss_latency::.switch_cpus.data 56554.291250                       # average overall mshr miss latency
system.cpu.dcache.overall_avg_mshr_miss_latency::total 56554.291250                       # average overall mshr miss latency
system.cpu.dcache.replacements                 123623                       # number of replacements
system.cpu.dcache.ReadReq_hits::.cpu.data            3                       # number of ReadReq hits
system.cpu.dcache.ReadReq_hits::.switch_cpus.data        93277                       # number of ReadReq hits
system.cpu.dcache.ReadReq_hits::total           93280                       # number of ReadReq hits
system.cpu.dcache.ReadReq_misses::.cpu.data            5                       # number of ReadReq misses
system.cpu.dcache.ReadReq_misses::.switch_cpus.data       251428                       # number of ReadReq misses
system.cpu.dcache.ReadReq_misses::total        251433                       # number of ReadReq misses
system.cpu.dcache.ReadReq_miss_latency::.switch_cpus.data  15558308800                       # number of ReadReq miss cycles
system.cpu.dcache.ReadReq_miss_latency::total  15558308800                       # number of ReadReq miss cycles
system.cpu.dcache.ReadReq_accesses::.cpu.data            8                       # number of ReadReq accesses(hits+misses)
system.cpu.dcache.ReadReq_accesses::.switch_cpus.data       344705                       # number of ReadReq accesses(hits+misses)
system.cpu.dcache.ReadReq_accesses::total       344713                       # number of ReadReq accesses(hits+misses)
system.cpu.dcache.ReadReq_miss_rate::.cpu.data     0.625000                       # miss rate for ReadReq accesses
system.cpu.dcache.ReadReq_miss_rate::.switch_cpus.data     0.729401                       # miss rate for ReadReq accesses
system.cpu.dcache.ReadReq_miss_rate::total     0.729398                       # miss rate for ReadReq accesses
system.cpu.dcache.ReadReq_avg_miss_latency::.switch_cpus.data 61879.777909                       # average ReadReq miss latency
system.cpu.dcache.ReadReq_avg_miss_latency::total 61878.547366                       # average ReadReq miss latency
system.cpu.dcache.ReadReq_mshr_hits::.switch_cpus.data       127559                       # number of ReadReq MSHR hits
system.cpu.dcache.ReadReq_mshr_hits::total       127559                       # number of ReadReq MSHR hits
system.cpu.dcache.ReadReq_mshr_misses::.switch_cpus.data       123869                       # number of ReadReq MSHR misses
system.cpu.dcache.ReadReq_mshr_misses::total       123869                       # number of ReadReq MSHR misses
system.cpu.dcache.ReadReq_mshr_miss_latency::.switch_cpus.data   7005117600                       # number of ReadReq MSHR miss cycles
system.cpu.dcache.ReadReq_mshr_miss_latency::total   7005117600                       # number of ReadReq MSHR miss cycles
system.cpu.dcache.ReadReq_mshr_miss_rate::.switch_cpus.data     0.359348                       # mshr miss rate for ReadReq accesses
system.cpu.dcache.ReadReq_mshr_miss_rate::total     0.359340                       # mshr miss rate for ReadReq accesses
system.cpu.dcache.ReadReq_avg_mshr_miss_latency::.switch_cpus.data 56552.628987                       # average ReadReq mshr miss latency
system.cpu.dcache.ReadReq_avg_mshr_miss_latency::total 56552.628987                       # average ReadReq mshr miss latency
system.cpu.dcache.WriteReq_hits::.switch_cpus.data        12016                       # number of WriteReq hits
system.cpu.dcache.WriteReq_hits::total          12016                       # number of WriteReq hits
system.cpu.dcache.WriteReq_misses::.switch_cpus.data          549                       # number of WriteReq misses
system.cpu.dcache.WriteReq_misses::total          549                       # number of WriteReq misses
system.cpu.dcache.WriteReq_miss_latency::.switch_cpus.data     16095199                       # number of WriteReq miss cycles
system.cpu.dcache.WriteReq_miss_latency::total     16095199                       # number of WriteReq miss cycles
system.cpu.dcache.WriteReq_accesses::.switch_cpus.data        12565                       # number of WriteReq accesses(hits+misses)
system.cpu.dcache.WriteReq_accesses::total        12565                       # number of WriteReq accesses(hits+misses)
system.cpu.dcache.WriteReq_miss_rate::.switch_cpus.data     0.043693                       # miss rate for WriteReq accesses
system.cpu.dcache.WriteReq_miss_rate::total     0.043693                       # miss rate for WriteReq accesses
system.cpu.dcache.WriteReq_avg_miss_latency::.switch_cpus.data 29317.302368                       # average WriteReq miss latency
system.cpu.dcache.WriteReq_avg_miss_latency::total 29317.302368                       # average WriteReq miss latency
system.cpu.dcache.WriteReq_mshr_hits::.switch_cpus.data          538                       # number of WriteReq MSHR hits
system.cpu.dcache.WriteReq_mshr_hits::total          538                       # number of WriteReq MSHR hits
system.cpu.dcache.WriteReq_mshr_misses::.switch_cpus.data           11                       # number of WriteReq MSHR misses
system.cpu.dcache.WriteReq_mshr_misses::total           11                       # number of WriteReq MSHR misses
system.cpu.dcache.WriteReq_mshr_miss_latency::.switch_cpus.data       828000                       # number of WriteReq MSHR miss cycles
system.cpu.dcache.WriteReq_mshr_miss_latency::total       828000                       # number of WriteReq MSHR miss cycles
system.cpu.dcache.WriteReq_mshr_miss_rate::.switch_cpus.data     0.000875                       # mshr miss rate for WriteReq accesses
system.cpu.dcache.WriteReq_mshr_miss_rate::total     0.000875                       # mshr miss rate for WriteReq accesses
system.cpu.dcache.WriteReq_avg_mshr_miss_latency::.switch_cpus.data 75272.727273                       # average WriteReq mshr miss latency
system.cpu.dcache.WriteReq_avg_mshr_miss_latency::total 75272.727273                       # average WriteReq mshr miss latency
system.cpu.dcache.SwapReq_hits::.switch_cpus.data           12                       # number of SwapReq hits
system.cpu.dcache.SwapReq_hits::total              12                       # number of SwapReq hits
system.cpu.dcache.SwapReq_accesses::.switch_cpus.data           12                       # number of SwapReq accesses(hits+misses)
system.cpu.dcache.SwapReq_accesses::total           12                       # number of SwapReq accesses(hits+misses)
system.cpu.dcache.power_state.pwrStateResidencyTicks::UNDEFINED 10901282128400                       # Cumulative time (in ticks) in various power states
system.cpu.dcache.tags.tagsinuse           255.519593                       # Cycle average of tags in use
system.cpu.dcache.tags.total_refs              216147                       # Total number of references to valid blocks.
system.cpu.dcache.tags.sampled_refs            123623                       # Sample count of references to valid blocks.
system.cpu.dcache.tags.avg_refs              1.748437                       # Average number of references to valid blocks.
system.cpu.dcache.tags.warmup_cycle      10899930298800                       # Cycle when the warmup percentage was hit.
system.cpu.dcache.tags.occ_blocks::.cpu.data     0.932211                       # Average occupied blocks per requestor
system.cpu.dcache.tags.occ_blocks::.switch_cpus.data   254.587382                       # Average occupied blocks per requestor
system.cpu.dcache.tags.occ_percent::.cpu.data     0.003641                       # Average percentage of cache occupancy
system.cpu.dcache.tags.occ_percent::.switch_cpus.data     0.994482                       # Average percentage of cache occupancy
system.cpu.dcache.tags.occ_percent::total     0.998123                       # Average percentage of cache occupancy
system.cpu.dcache.tags.occ_task_id_blocks::1024          256                       # Occupied blocks per task id
system.cpu.dcache.tags.age_task_id_blocks_1024::0          255                       # Occupied blocks per task id
system.cpu.dcache.tags.age_task_id_blocks_1024::2            1                       # Occupied blocks per task id
system.cpu.dcache.tags.occ_task_id_percent::1024            1                       # Percentage of cache occupancy per task id
system.cpu.dcache.tags.tag_accesses           2982199                       # Number of tag accesses
system.cpu.dcache.tags.data_accesses          2982199                       # Number of data accesses
system.cpu.dcache.tags.power_state.pwrStateResidencyTicks::UNDEFINED 10901282128400                       # Cumulative time (in ticks) in various power states
system.cpu.dtb.instHits                             0                       # ITB inst hits
system.cpu.dtb.instMisses                           0                       # ITB inst misses
system.cpu.dtb.readHits                             0                       # DTB read hits
system.cpu.dtb.readMisses                           0                       # DTB read misses
system.cpu.dtb.writeHits                            0                       # DTB write hits
system.cpu.dtb.writeMisses                          0                       # DTB write misses
system.cpu.dtb.inserts                              0                       # Number of times an entry is inserted into the TLB
system.cpu.dtb.flushTlb                             2                       # Number of times complete TLB was flushed
system.cpu.dtb.flushTlbMva                          0                       # Number of times TLB was flushed by MVA
system.cpu.dtb.flushTlbMvaAsid                      0                       # Number of times TLB was flushed by MVA & ASID
system.cpu.dtb.flushTlbAsid                         0                       # Number of times TLB was flushed by ASID
system.cpu.dtb.flushedEntries                       0                       # Number of entries that have been flushed from TLB
system.cpu.dtb.alignFaults                          0                       # Number of TLB faults due to alignment restrictions
system.cpu.dtb.prefetchFaults                       0                       # Number of TLB faults due to prefetch
system.cpu.dtb.domainFaults                         0                       # Number of TLB faults due to domain restrictions
system.cpu.dtb.permsFaults                          0                       # Number of TLB faults due to permissions restrictions
system.cpu.dtb.readAccesses                         0                       # DTB read accesses
system.cpu.dtb.writeAccesses                        0                       # DTB write accesses
system.cpu.dtb.instAccesses                         0                       # ITB inst accesses
system.cpu.dtb.hits                                 0                       # Total TLB (inst and data) hits
system.cpu.dtb.misses                               0                       # Total TLB (inst and data) misses
system.cpu.dtb.accesses                             0                       # Total TLB (inst and data) accesses
system.cpu.dtb.stage2_mmu.stage2_tlb.instHits            0                       # ITB inst hits
system.cpu.dtb.stage2_mmu.stage2_tlb.instMisses            0                       # ITB inst misses
system.cpu.dtb.stage2_mmu.stage2_tlb.readHits            0                       # DTB read hits
system.cpu.dtb.stage2_mmu.stage2_tlb.readMisses            0                       # DTB read misses
system.cpu.dtb.stage2_mmu.stage2_tlb.writeHits            0                       # DTB write hits
system.cpu.dtb.stage2_mmu.stage2_tlb.writeMisses            0                       # DTB write misses
system.cpu.dtb.stage2_mmu.stage2_tlb.inserts            0                       # Number of times an entry is inserted into the TLB
system.cpu.dtb.stage2_mmu.stage2_tlb.flushTlb            0                       # Number of times complete TLB was flushed
system.cpu.dtb.stage2_mmu.stage2_tlb.flushTlbMva            0                       # Number of times TLB was flushed by MVA
system.cpu.dtb.stage2_mmu.stage2_tlb.flushTlbMvaAsid            0                       # Number of times TLB was flushed by MVA & ASID
system.cpu.dtb.stage2_mmu.stage2_tlb.flushTlbAsid            0                       # Number of times TLB was flushed by ASID
system.cpu.dtb.stage2_mmu.stage2_tlb.flushedEntries            0                       # Number of entries that have been flushed from TLB
system.cpu.dtb.stage2_mmu.stage2_tlb.alignFaults            0                       # Number of TLB faults due to alignment restrictions
system.cpu.dtb.stage2_mmu.stage2_tlb.prefetchFaults            0                       # Number of TLB faults due to prefetch
system.cpu.dtb.stage2_mmu.stage2_tlb.domainFaults            0                       # Number of TLB faults due to domain restrictions
system.cpu.dtb.stage2_mmu.stage2_tlb.permsFaults            0                       # Number of TLB faults due to permissions restrictions
system.cpu.dtb.stage2_mmu.stage2_tlb.readAccesses            0                       # DTB read accesses
system.cpu.dtb.stage2_mmu.stage2_tlb.writeAccesses            0                       # DTB write accesses
system.cpu.dtb.stage2_mmu.stage2_tlb.instAccesses            0                       # ITB inst accesses
system.cpu.dtb.stage2_mmu.stage2_tlb.hits            0                       # Total TLB (inst and data) hits
system.cpu.dtb.stage2_mmu.stage2_tlb.misses            0                       # Total TLB (inst and data) misses
system.cpu.dtb.stage2_mmu.stage2_tlb.accesses            0                       # Total TLB (inst and data) accesses
system.cpu.dtb.stage2_mmu.stage2_tlb.walker.walks            0                       # Table walker walks requested
system.cpu.dtb.stage2_mmu.stage2_tlb.walker.requestOrigin_Requested::Data            0                       # Table walker requests started/completed, data/inst
system.cpu.dtb.stage2_mmu.stage2_tlb.walker.requestOrigin_Requested::Inst            0                       # Table walker requests started/completed, data/inst
system.cpu.dtb.stage2_mmu.stage2_tlb.walker.requestOrigin_Requested::total            0                       # Table walker requests started/completed, data/inst
system.cpu.dtb.stage2_mmu.stage2_tlb.walker.requestOrigin_Completed::Data            0                       # Table walker requests started/completed, data/inst
system.cpu.dtb.stage2_mmu.stage2_tlb.walker.requestOrigin_Completed::Inst            0                       # Table walker requests started/completed, data/inst
system.cpu.dtb.stage2_mmu.stage2_tlb.walker.requestOrigin_Completed::total            0                       # Table walker requests started/completed, data/inst
system.cpu.dtb.stage2_mmu.stage2_tlb.walker.requestOrigin::total            0                       # Table walker requests started/completed, data/inst
system.cpu.dtb.stage2_mmu.stage2_tlb.walker.power_state.pwrStateResidencyTicks::UNDEFINED 10901282128400                       # Cumulative time (in ticks) in various power states
system.cpu.dtb.walker.walks                         0                       # Table walker walks requested
system.cpu.dtb.walker.requestOrigin_Requested::Data            0                       # Table walker requests started/completed, data/inst
system.cpu.dtb.walker.requestOrigin_Requested::Inst            0                       # Table walker requests started/completed, data/inst
system.cpu.dtb.walker.requestOrigin_Requested::total            0                       # Table walker requests started/completed, data/inst
system.cpu.dtb.walker.requestOrigin_Completed::Data            0                       # Table walker requests started/completed, data/inst
system.cpu.dtb.walker.requestOrigin_Completed::Inst            0                       # Table walker requests started/completed, data/inst
system.cpu.dtb.walker.requestOrigin_Completed::total            0                       # Table walker requests started/completed, data/inst
system.cpu.dtb.walker.requestOrigin::total            0                       # Table walker requests started/completed, data/inst
system.cpu.dtb.walker.power_state.pwrStateResidencyTicks::UNDEFINED 10901282128400                       # Cumulative time (in ticks) in various power states
system.cpu.dtb_walker_cache.blocked_cycles::no_mshrs            0                       # number of cycles access was blocked
system.cpu.dtb_walker_cache.blocked_cycles::no_targets            0                       # number of cycles access was blocked
system.cpu.dtb_walker_cache.blocked::no_mshrs            0                       # number of cycles access was blocked
system.cpu.dtb_walker_cache.blocked::no_targets            0                       # number of cycles access was blocked
system.cpu.dtb_walker_cache.avg_blocked_cycles::no_mshrs          nan                       # average number of cycles each access was blocked
system.cpu.dtb_walker_cache.avg_blocked_cycles::no_targets          nan                       # average number of cycles each access was blocked
system.cpu.dtb_walker_cache.replacements            0                       # number of replacements
system.cpu.dtb_walker_cache.power_state.pwrStateResidencyTicks::UNDEFINED 10901282128400                       # Cumulative time (in ticks) in various power states
system.cpu.dtb_walker_cache.tags.tagsinuse            0                       # Cycle average of tags in use
system.cpu.dtb_walker_cache.tags.total_refs            0                       # Total number of references to valid blocks.
system.cpu.dtb_walker_cache.tags.sampled_refs            0                       # Sample count of references to valid blocks.
system.cpu.dtb_walker_cache.tags.avg_refs          nan                       # Average number of references to valid blocks.
system.cpu.dtb_walker_cache.tags.warmup_cycle            0                       # Cycle when the warmup percentage was hit.
system.cpu.dtb_walker_cache.tags.tag_accesses            0                       # Number of tag accesses
system.cpu.dtb_walker_cache.tags.data_accesses            0                       # Number of data accesses
system.cpu.dtb_walker_cache.tags.power_state.pwrStateResidencyTicks::UNDEFINED 10901282128400                       # Cumulative time (in ticks) in various power states
system.cpu.icache.demand_hits::.cpu.inst           20                       # number of demand (read+write) hits
system.cpu.icache.demand_hits::.switch_cpus.inst       159672                       # number of demand (read+write) hits
system.cpu.icache.demand_hits::total           159692                       # number of demand (read+write) hits
system.cpu.icache.overall_hits::.cpu.inst           20                       # number of overall hits
system.cpu.icache.overall_hits::.switch_cpus.inst       159672                       # number of overall hits
system.cpu.icache.overall_hits::total          159692                       # number of overall hits
system.cpu.icache.demand_misses::.cpu.inst            3                       # number of demand (read+write) misses
system.cpu.icache.demand_misses::.switch_cpus.inst          127                       # number of demand (read+write) misses
system.cpu.icache.demand_misses::total            130                       # number of demand (read+write) misses
system.cpu.icache.overall_misses::.cpu.inst            3                       # number of overall misses
system.cpu.icache.overall_misses::.switch_cpus.inst          127                       # number of overall misses
system.cpu.icache.overall_misses::total           130                       # number of overall misses
system.cpu.icache.demand_miss_latency::.switch_cpus.inst      8467593                       # number of demand (read+write) miss cycles
system.cpu.icache.demand_miss_latency::total      8467593                       # number of demand (read+write) miss cycles
system.cpu.icache.overall_miss_latency::.switch_cpus.inst      8467593                       # number of overall miss cycles
system.cpu.icache.overall_miss_latency::total      8467593                       # number of overall miss cycles
system.cpu.icache.demand_accesses::.cpu.inst           23                       # number of demand (read+write) accesses
system.cpu.icache.demand_accesses::.switch_cpus.inst       159799                       # number of demand (read+write) accesses
system.cpu.icache.demand_accesses::total       159822                       # number of demand (read+write) accesses
system.cpu.icache.overall_accesses::.cpu.inst           23                       # number of overall (read+write) accesses
system.cpu.icache.overall_accesses::.switch_cpus.inst       159799                       # number of overall (read+write) accesses
system.cpu.icache.overall_accesses::total       159822                       # number of overall (read+write) accesses
system.cpu.icache.demand_miss_rate::.cpu.inst     0.130435                       # miss rate for demand accesses
system.cpu.icache.demand_miss_rate::.switch_cpus.inst     0.000795                       # miss rate for demand accesses
system.cpu.icache.demand_miss_rate::total     0.000813                       # miss rate for demand accesses
system.cpu.icache.overall_miss_rate::.cpu.inst     0.130435                       # miss rate for overall accesses
system.cpu.icache.overall_miss_rate::.switch_cpus.inst     0.000795                       # miss rate for overall accesses
system.cpu.icache.overall_miss_rate::total     0.000813                       # miss rate for overall accesses
system.cpu.icache.demand_avg_miss_latency::.switch_cpus.inst 66673.960630                       # average overall miss latency
system.cpu.icache.demand_avg_miss_latency::total 65135.330769                       # average overall miss latency
system.cpu.icache.overall_avg_miss_latency::.switch_cpus.inst 66673.960630                       # average overall miss latency
system.cpu.icache.overall_avg_miss_latency::total 65135.330769                       # average overall miss latency
system.cpu.icache.blocked_cycles::no_mshrs         4862                       # number of cycles access was blocked
system.cpu.icache.blocked_cycles::no_targets            0                       # number of cycles access was blocked
system.cpu.icache.blocked::no_mshrs                41                       # number of cycles access was blocked
system.cpu.icache.blocked::no_targets               0                       # number of cycles access was blocked
system.cpu.icache.avg_blocked_cycles::no_mshrs   118.585366                       # average number of cycles each access was blocked
system.cpu.icache.avg_blocked_cycles::no_targets          nan                       # average number of cycles each access was blocked
system.cpu.icache.demand_mshr_hits::.switch_cpus.inst           35                       # number of demand (read+write) MSHR hits
system.cpu.icache.demand_mshr_hits::total           35                       # number of demand (read+write) MSHR hits
system.cpu.icache.overall_mshr_hits::.switch_cpus.inst           35                       # number of overall MSHR hits
system.cpu.icache.overall_mshr_hits::total           35                       # number of overall MSHR hits
system.cpu.icache.demand_mshr_misses::.switch_cpus.inst           92                       # number of demand (read+write) MSHR misses
system.cpu.icache.demand_mshr_misses::total           92                       # number of demand (read+write) MSHR misses
system.cpu.icache.overall_mshr_misses::.switch_cpus.inst           92                       # number of overall MSHR misses
system.cpu.icache.overall_mshr_misses::total           92                       # number of overall MSHR misses
system.cpu.icache.demand_mshr_miss_latency::.switch_cpus.inst      7042394                       # number of demand (read+write) MSHR miss cycles
system.cpu.icache.demand_mshr_miss_latency::total      7042394                       # number of demand (read+write) MSHR miss cycles
system.cpu.icache.overall_mshr_miss_latency::.switch_cpus.inst      7042394                       # number of overall MSHR miss cycles
system.cpu.icache.overall_mshr_miss_latency::total      7042394                       # number of overall MSHR miss cycles
system.cpu.icache.demand_mshr_miss_rate::.switch_cpus.inst     0.000576                       # mshr miss rate for demand accesses
system.cpu.icache.demand_mshr_miss_rate::total     0.000576                       # mshr miss rate for demand accesses
system.cpu.icache.overall_mshr_miss_rate::.switch_cpus.inst     0.000576                       # mshr miss rate for overall accesses
system.cpu.icache.overall_mshr_miss_rate::total     0.000576                       # mshr miss rate for overall accesses
system.cpu.icache.demand_avg_mshr_miss_latency::.switch_cpus.inst 76547.760870                       # average overall mshr miss latency
system.cpu.icache.demand_avg_mshr_miss_latency::total 76547.760870                       # average overall mshr miss latency
system.cpu.icache.overall_avg_mshr_miss_latency::.switch_cpus.inst 76547.760870                       # average overall mshr miss latency
system.cpu.icache.overall_avg_mshr_miss_latency::total 76547.760870                       # average overall mshr miss latency
system.cpu.icache.replacements                      0                       # number of replacements
system.cpu.icache.ReadReq_hits::.cpu.inst           20                       # number of ReadReq hits
system.cpu.icache.ReadReq_hits::.switch_cpus.inst       159672                       # number of ReadReq hits
system.cpu.icache.ReadReq_hits::total          159692                       # number of ReadReq hits
system.cpu.icache.ReadReq_misses::.cpu.inst            3                       # number of ReadReq misses
system.cpu.icache.ReadReq_misses::.switch_cpus.inst          127                       # number of ReadReq misses
system.cpu.icache.ReadReq_misses::total           130                       # number of ReadReq misses
system.cpu.icache.ReadReq_miss_latency::.switch_cpus.inst      8467593                       # number of ReadReq miss cycles
system.cpu.icache.ReadReq_miss_latency::total      8467593                       # number of ReadReq miss cycles
system.cpu.icache.ReadReq_accesses::.cpu.inst           23                       # number of ReadReq accesses(hits+misses)
system.cpu.icache.ReadReq_accesses::.switch_cpus.inst       159799                       # number of ReadReq accesses(hits+misses)
system.cpu.icache.ReadReq_accesses::total       159822                       # number of ReadReq accesses(hits+misses)
system.cpu.icache.ReadReq_miss_rate::.cpu.inst     0.130435                       # miss rate for ReadReq accesses
system.cpu.icache.ReadReq_miss_rate::.switch_cpus.inst     0.000795                       # miss rate for ReadReq accesses
system.cpu.icache.ReadReq_miss_rate::total     0.000813                       # miss rate for ReadReq accesses
system.cpu.icache.ReadReq_avg_miss_latency::.switch_cpus.inst 66673.960630                       # average ReadReq miss latency
system.cpu.icache.ReadReq_avg_miss_latency::total 65135.330769                       # average ReadReq miss latency
system.cpu.icache.ReadReq_mshr_hits::.switch_cpus.inst           35                       # number of ReadReq MSHR hits
system.cpu.icache.ReadReq_mshr_hits::total           35                       # number of ReadReq MSHR hits
system.cpu.icache.ReadReq_mshr_misses::.switch_cpus.inst           92                       # number of ReadReq MSHR misses
system.cpu.icache.ReadReq_mshr_misses::total           92                       # number of ReadReq MSHR misses
system.cpu.icache.ReadReq_mshr_miss_latency::.switch_cpus.inst      7042394                       # number of ReadReq MSHR miss cycles
system.cpu.icache.ReadReq_mshr_miss_latency::total      7042394                       # number of ReadReq MSHR miss cycles
system.cpu.icache.ReadReq_mshr_miss_rate::.switch_cpus.inst     0.000576                       # mshr miss rate for ReadReq accesses
system.cpu.icache.ReadReq_mshr_miss_rate::total     0.000576                       # mshr miss rate for ReadReq accesses
system.cpu.icache.ReadReq_avg_mshr_miss_latency::.switch_cpus.inst 76547.760870                       # average ReadReq mshr miss latency
system.cpu.icache.ReadReq_avg_mshr_miss_latency::total 76547.760870                       # average ReadReq mshr miss latency
system.cpu.icache.power_state.pwrStateResidencyTicks::UNDEFINED 10901282128400                       # Cumulative time (in ticks) in various power states
system.cpu.icache.tags.tagsinuse            14.684988                       # Cycle average of tags in use
system.cpu.icache.tags.total_refs                   0                       # Total number of references to valid blocks.
system.cpu.icache.tags.sampled_refs                 0                       # Sample count of references to valid blocks.
system.cpu.icache.tags.avg_refs                   nan                       # Average number of references to valid blocks.
system.cpu.icache.tags.warmup_cycle      10899930296400                       # Cycle when the warmup percentage was hit.
system.cpu.icache.tags.occ_blocks::.cpu.inst     2.999993                       # Average occupied blocks per requestor
system.cpu.icache.tags.occ_blocks::.switch_cpus.inst    11.684994                       # Average occupied blocks per requestor
system.cpu.icache.tags.occ_percent::.cpu.inst     0.005859                       # Average percentage of cache occupancy
system.cpu.icache.tags.occ_percent::.switch_cpus.inst     0.022822                       # Average percentage of cache occupancy
system.cpu.icache.tags.occ_percent::total     0.028682                       # Average percentage of cache occupancy
system.cpu.icache.tags.occ_task_id_blocks::1024           95                       # Occupied blocks per task id
system.cpu.icache.tags.age_task_id_blocks_1024::2           88                       # Occupied blocks per task id
system.cpu.icache.tags.age_task_id_blocks_1024::3            7                       # Occupied blocks per task id
system.cpu.icache.tags.occ_task_id_percent::1024     0.185547                       # Percentage of cache occupancy per task id
system.cpu.icache.tags.tag_accesses           1278671                       # Number of tag accesses
system.cpu.icache.tags.data_accesses          1278671                       # Number of data accesses
system.cpu.icache.tags.power_state.pwrStateResidencyTicks::UNDEFINED 10901282128400                       # Cumulative time (in ticks) in various power states
system.cpu.itb.instHits                             0                       # ITB inst hits
system.cpu.itb.instMisses                           0                       # ITB inst misses
system.cpu.itb.readHits                             0                       # DTB read hits
system.cpu.itb.readMisses                           0                       # DTB read misses
system.cpu.itb.writeHits                            0                       # DTB write hits
system.cpu.itb.writeMisses                          0                       # DTB write misses
system.cpu.itb.inserts                              0                       # Number of times an entry is inserted into the TLB
system.cpu.itb.flushTlb                             2                       # Number of times complete TLB was flushed
system.cpu.itb.flushTlbMva                          0                       # Number of times TLB was flushed by MVA
system.cpu.itb.flushTlbMvaAsid                      0                       # Number of times TLB was flushed by MVA & ASID
system.cpu.itb.flushTlbAsid                         0                       # Number of times TLB was flushed by ASID
system.cpu.itb.flushedEntries                       0                       # Number of entries that have been flushed from TLB
system.cpu.itb.alignFaults                          0                       # Number of TLB faults due to alignment restrictions
system.cpu.itb.prefetchFaults                       0                       # Number of TLB faults due to prefetch
system.cpu.itb.domainFaults                         0                       # Number of TLB faults due to domain restrictions
system.cpu.itb.permsFaults                          0                       # Number of TLB faults due to permissions restrictions
system.cpu.itb.readAccesses                         0                       # DTB read accesses
system.cpu.itb.writeAccesses                        0                       # DTB write accesses
system.cpu.itb.instAccesses                         0                       # ITB inst accesses
system.cpu.itb.hits                                 0                       # Total TLB (inst and data) hits
system.cpu.itb.misses                               0                       # Total TLB (inst and data) misses
system.cpu.itb.accesses                             0                       # Total TLB (inst and data) accesses
system.cpu.itb.stage2_mmu.stage2_tlb.instHits            0                       # ITB inst hits
system.cpu.itb.stage2_mmu.stage2_tlb.instMisses            0                       # ITB inst misses
system.cpu.itb.stage2_mmu.stage2_tlb.readHits            0                       # DTB read hits
system.cpu.itb.stage2_mmu.stage2_tlb.readMisses            0                       # DTB read misses
system.cpu.itb.stage2_mmu.stage2_tlb.writeHits            0                       # DTB write hits
system.cpu.itb.stage2_mmu.stage2_tlb.writeMisses            0                       # DTB write misses
system.cpu.itb.stage2_mmu.stage2_tlb.inserts            0                       # Number of times an entry is inserted into the TLB
system.cpu.itb.stage2_mmu.stage2_tlb.flushTlb            0                       # Number of times complete TLB was flushed
system.cpu.itb.stage2_mmu.stage2_tlb.flushTlbMva            0                       # Number of times TLB was flushed by MVA
system.cpu.itb.stage2_mmu.stage2_tlb.flushTlbMvaAsid            0                       # Number of times TLB was flushed by MVA & ASID
system.cpu.itb.stage2_mmu.stage2_tlb.flushTlbAsid            0                       # Number of times TLB was flushed by ASID
system.cpu.itb.stage2_mmu.stage2_tlb.flushedEntries            0                       # Number of entries that have been flushed from TLB
system.cpu.itb.stage2_mmu.stage2_tlb.alignFaults            0                       # Number of TLB faults due to alignment restrictions
system.cpu.itb.stage2_mmu.stage2_tlb.prefetchFaults            0                       # Number of TLB faults due to prefetch
system.cpu.itb.stage2_mmu.stage2_tlb.domainFaults            0                       # Number of TLB faults due to domain restrictions
system.cpu.itb.stage2_mmu.stage2_tlb.permsFaults            0                       # Number of TLB faults due to permissions restrictions
system.cpu.itb.stage2_mmu.stage2_tlb.readAccesses            0                       # DTB read accesses
system.cpu.itb.stage2_mmu.stage2_tlb.writeAccesses            0                       # DTB write accesses
system.cpu.itb.stage2_mmu.stage2_tlb.instAccesses            0                       # ITB inst accesses
system.cpu.itb.stage2_mmu.stage2_tlb.hits            0                       # Total TLB (inst and data) hits
system.cpu.itb.stage2_mmu.stage2_tlb.misses            0                       # Total TLB (inst and data) misses
system.cpu.itb.stage2_mmu.stage2_tlb.accesses            0                       # Total TLB (inst and data) accesses
system.cpu.itb.stage2_mmu.stage2_tlb.walker.walks            0                       # Table walker walks requested
system.cpu.itb.stage2_mmu.stage2_tlb.walker.requestOrigin_Requested::Data            0                       # Table walker requests started/completed, data/inst
system.cpu.itb.stage2_mmu.stage2_tlb.walker.requestOrigin_Requested::Inst            0                       # Table walker requests started/completed, data/inst
system.cpu.itb.stage2_mmu.stage2_tlb.walker.requestOrigin_Requested::total            0                       # Table walker requests started/completed, data/inst
system.cpu.itb.stage2_mmu.stage2_tlb.walker.requestOrigin_Completed::Data            0                       # Table walker requests started/completed, data/inst
system.cpu.itb.stage2_mmu.stage2_tlb.walker.requestOrigin_Completed::Inst            0                       # Table walker requests started/completed, data/inst
system.cpu.itb.stage2_mmu.stage2_tlb.walker.requestOrigin_Completed::total            0                       # Table walker requests started/completed, data/inst
system.cpu.itb.stage2_mmu.stage2_tlb.walker.requestOrigin::total            0                       # Table walker requests started/completed, data/inst
system.cpu.itb.stage2_mmu.stage2_tlb.walker.power_state.pwrStateResidencyTicks::UNDEFINED 10901282128400                       # Cumulative time (in ticks) in various power states
system.cpu.itb.walker.walks                         0                       # Table walker walks requested
system.cpu.itb.walker.requestOrigin_Requested::Data            0                       # Table walker requests started/completed, data/inst
system.cpu.itb.walker.requestOrigin_Requested::Inst            0                       # Table walker requests started/completed, data/inst
[...]
system.switch_cpus.fetch.cycles              51442298                       # Number of cycles fetch has run and was not squashing or blocked
system.switch_cpus.fetch.squashCycles           42018                       # Number of cycles fetch has spent squashing
system.switch_cpus.fetch.miscStallCycles          278                       # Number of cycles fetch has spent waiting on interrupts,or bad addresses, or out of MSHRs
system.switch_cpus.fetch.icacheWaitRetryStallCycles          517                       # Number of stall cycles due to full MSHR
system.switch_cpus.fetch.cacheLines           1157271                       # Number of cache lines fetched
system.switch_cpus.fetch.icacheSquashes           186                       # Number of outstanding Icache misses that were squashed
system.switch_cpus.fetch.nisnDist::samples     51471890                       # Number of instructions fetched each cycle (Total)
system.switch_cpus.fetch.nisnDist::mean      0.287548                       # Number of instructions fetched each cycle (Total)
system.switch_cpus.fetch.nisnDist::stdev     1.221623                       # Number of instructions fetched each cycle (Total)
system.switch_cpus.fetch.nisnDist::underflows            0      0.00%      0.00% # Number of instructions fetched each cycle (Total)
system.switch_cpus.fetch.nisnDist::0         48248526     93.74%     93.74% # Number of instructions fetched each cycle (Total)
system.switch_cpus.fetch.nisnDist::1           193211      0.38%     94.11% # Number of instructions fetched each cycle (Total)
system.switch_cpus.fetch.nisnDist::2           390051      0.76%     94.87% # Number of instructions fetched each cycle (Total)
system.switch_cpus.fetch.nisnDist::3           110782      0.22%     95.09% # Number of instructions fetched each cycle (Total)
system.switch_cpus.fetch.nisnDist::4          1165195      2.26%     97.35% # Number of instructions fetched each cycle (Total)
system.switch_cpus.fetch.nisnDist::5           536787      1.04%     98.39% # Number of instructions fetched each cycle (Total)
system.switch_cpus.fetch.nisnDist::6           167051      0.32%     98.72% # Number of instructions fetched each cycle (Total)
system.switch_cpus.fetch.nisnDist::7           134321      0.26%     98.98% # Number of instructions fetched each cycle (Total)
system.switch_cpus.fetch.nisnDist::8           525966      1.02%    100.00% # Number of instructions fetched each cycle (Total)
system.switch_cpus.fetch.nisnDist::overflows            0      0.00%    100.00% # Number of instructions fetched each cycle (Total)
system.switch_cpus.fetch.nisnDist::min_value            0                       # Number of instructions fetched each cycle (Total)
system.switch_cpus.fetch.nisnDist::max_value            8                       # Number of instructions fetched each cycle (Total)
system.switch_cpus.fetch.nisnDist::total     51471890                       # Number of instructions fetched each cycle (Total)
system.switch_cpus.fetch.branchRate          0.057558                       # Number of branch fetches per cycle
system.switch_cpus.fetch.rate                0.261191                       # Number of inst fetches per cycle
system.switch_cpus.itb.instHits                     0                       # ITB inst hits
system.switch_cpus.itb.instMisses                   0                       # ITB inst misses
system.switch_cpus.itb.readHits                     0                       # DTB read hits
system.switch_cpus.itb.readMisses                   0                       # DTB read misses
system.switch_cpus.itb.writeHits                    0                       # DTB write hits
system.switch_cpus.itb.writeMisses                  0                       # DTB write misses
system.switch_cpus.itb.inserts                      0                       # Number of times an entry is inserted into the TLB
system.switch_cpus.itb.flushTlb                     0                       # Number of times complete TLB was flushed
system.switch_cpus.itb.flushTlbMva                  0                       # Number of times TLB was flushed by MVA
system.switch_cpus.itb.flushTlbMvaAsid              0                       # Number of times TLB was flushed by MVA & ASID
system.switch_cpus.itb.flushTlbAsid                 0                       # Number of times TLB was flushed by ASID
system.switch_cpus.itb.flushedEntries               0                       # Number of entries that have been flushed from TLB
system.switch_cpus.itb.alignFaults                  0                       # Number of TLB faults due to alignment restrictions
system.switch_cpus.itb.prefetchFaults               0                       # Number of TLB faults due to prefetch
system.switch_cpus.itb.domainFaults                 0                       # Number of TLB faults due to domain restrictions
system.switch_cpus.itb.permsFaults                  0                       # Number of TLB faults due to permissions restrictions
system.switch_cpus.itb.readAccesses                 0                       # DTB read accesses
system.switch_cpus.itb.writeAccesses                0                       # DTB write accesses
system.switch_cpus.itb.instAccesses                 0                       # ITB inst accesses
system.switch_cpus.itb.hits                         0                       # Total TLB (inst and data) hits
system.switch_cpus.itb.misses                       0                       # Total TLB (inst and data) misses
system.switch_cpus.itb.accesses                     0                       # Total TLB (inst and data) accesses
system.switch_cpus.itb.stage2_mmu.stage2_tlb.instHits            0                       # ITB inst hits
system.switch_cpus.itb.stage2_mmu.stage2_tlb.instMisses            0                       # ITB inst misses
system.switch_cpus.itb.stage2_mmu.stage2_tlb.readHits            0                       # DTB read hits
system.switch_cpus.itb.stage2_mmu.stage2_tlb.readMisses            0                       # DTB read misses
system.switch_cpus.itb.stage2_mmu.stage2_tlb.writeHits            0                       # DTB write hits
system.switch_cpus.itb.stage2_mmu.stage2_tlb.writeMisses            0                       # DTB write misses
system.switch_cpus.itb.stage2_mmu.stage2_tlb.inserts            0                       # Number of times an entry is inserted into the TLB
system.switch_cpus.itb.stage2_mmu.stage2_tlb.flushTlb            0                       # Number of times complete TLB was flushed
system.switch_cpus.itb.stage2_mmu.stage2_tlb.flushTlbMva            0                       # Number of times TLB was flushed by MVA
system.switch_cpus.itb.stage2_mmu.stage2_tlb.flushTlbMvaAsid            0                       # Number of times TLB was flushed by MVA & ASID
system.switch_cpus.itb.stage2_mmu.stage2_tlb.flushTlbAsid            0                       # Number of times TLB was flushed by ASID
system.switch_cpus.itb.stage2_mmu.stage2_tlb.flushedEntries            0                       # Number of entries that have been flushed from TLB
system.switch_cpus.itb.stage2_mmu.stage2_tlb.alignFaults            0                       # Number of TLB faults due to alignment restrictions
system.switch_cpus.itb.stage2_mmu.stage2_tlb.prefetchFaults            0                       # Number of TLB faults due to prefetch
system.switch_cpus.itb.stage2_mmu.stage2_tlb.domainFaults            0                       # Number of TLB faults due to domain restrictions
system.switch_cpus.itb.stage2_mmu.stage2_tlb.permsFaults            0                       # Number of TLB faults due to permissions restrictions
system.switch_cpus.itb.stage2_mmu.stage2_tlb.readAccesses            0                       # DTB read accesses
system.switch_cpus.itb.stage2_mmu.stage2_tlb.writeAccesses            0                       # DTB write accesses
system.switch_cpus.itb.stage2_mmu.stage2_tlb.instAccesses            0                       # ITB inst accesses
system.switch_cpus.itb.stage2_mmu.stage2_tlb.hits            0                       # Total TLB (inst and data) hits
system.switch_cpus.itb.stage2_mmu.stage2_tlb.misses            0                       # Total TLB (inst and data) misses
system.switch_cpus.itb.stage2_mmu.stage2_tlb.accesses            0                       # Total TLB (inst and data) accesses
system.switch_cpus.itb.stage2_mmu.stage2_tlb.walker.walks            0                       # Table walker walks requested
system.switch_cpus.itb.stage2_mmu.stage2_tlb.walker.requestOrigin_Requested::Data            0                       # Table walker requests started/completed, data/inst
system.switch_cpus.itb.stage2_mmu.stage2_tlb.walker.requestOrigin_Requested::Inst            0                       # Table walker requests started/completed, data/inst
system.switch_cpus.itb.stage2_mmu.stage2_tlb.walker.requestOrigin_Requested::total            0                       # Table walker requests started/completed, data/inst
system.switch_cpus.itb.stage2_mmu.stage2_tlb.walker.requestOrigin_Completed::Data            0                       # Table walker requests started/completed, data/inst
system.switch_cpus.itb.stage2_mmu.stage2_tlb.walker.requestOrigin_Completed::Inst            0                       # Table walker requests started/completed, data/inst
system.switch_cpus.itb.stage2_mmu.stage2_tlb.walker.requestOrigin_Completed::total            0                       # Table walker requests started/completed, data/inst
system.switch_cpus.itb.stage2_mmu.stage2_tlb.walker.requestOrigin::total            0                       # Table walker requests started/completed, data/inst
system.switch_cpus.itb.stage2_mmu.stage2_tlb.walker.power_state.pwrStateResidencyTicks::UNDEFINED  20594824400                       # Cumulative time (in ticks) in various power states
system.switch_cpus.itb.walker.walks                 0                       # Table walker walks requested
system.switch_cpus.itb.walker.requestOrigin_Requested::Data            0                       # Table walker requests started/completed, data/inst
system.switch_cpus.itb.walker.requestOrigin_Requested::Inst            0                       # Table walker requests started/completed, data/inst
system.switch_cpus.itb.walker.requestOrigin_Requested::total            0                       # Table walker requests started/completed, data/inst
system.switch_cpus.itb.walker.requestOrigin_Completed::Data            0                       # Table walker requests started/completed, data/inst
system.switch_cpus.itb.walker.requestOrigin_Completed::Inst            0                       # Table walker requests started/completed, data/inst
system.switch_cpus.itb.walker.requestOrigin_Completed::total            0                       # Table walker requests started/completed, data/inst
system.switch_cpus.itb.walker.requestOrigin::total            0                       # Table walker requests started/completed, data/inst
system.switch_cpus.itb.walker.power_state.pwrStateResidencyTicks::UNDEFINED  20594824400                       # Cumulative time (in ticks) in various power states
system.switch_cpus.lsq0.forwLoads               65898                       # Number of loads that had data forwarded from stores
system.switch_cpus.lsq0.squashedLoads          234994                       # Number of loads squashed
system.switch_cpus.lsq0.ignoredResponses            0                       # Number of memory responses ignored because the instruction is squashed
system.switch_cpus.lsq0.memOrderViolation           38                       # Number of memory ordering violations
system.switch_cpus.lsq0.squashedStores         355837                       # Number of stores squashed
system.switch_cpus.lsq0.rescheduledLoads           59                       # Number of loads that were rescheduled
system.switch_cpus.lsq0.blockedByCache         507427                       # Number of times an access to memory failed due to the cache being blocked
system.switch_cpus.power_state.pwrStateResidencyTicks::OFF  20594824400                       # Cumulative time (in ticks) in various power states
system.switch_cpus.rename.squashCycles          20885                       # Number of cycles rename is squashing
system.switch_cpus.rename.idleCycles          1161753                       # Number of cycles rename is idle
system.switch_cpus.rename.blockCycles        28299001                       # Number of cycles rename is blocking
system.switch_cpus.rename.serializeStallCycles         6399                       # count of cycles rename stalledfor serializing inst
system.switch_cpus.rename.runCycles           1381244                       # Number of cycles rename is running
system.switch_cpus.rename.unblockCycles      20602608                       # Number of cycles rename is unblocking
system.switch_cpus.rename.renamedInsts       13747789                       # Number of instructions processed by rename
system.switch_cpus.rename.squashedInsts         27491                       # Number of squashed instructions processed by rename
system.switch_cpus.rename.ROBFullEvents         41477                       # Number of times rename has blocked due to ROB full
system.switch_cpus.rename.IQFullEvents        3436281                       # Number of times rename has blocked due to IQ full
system.switch_cpus.rename.SQFullEvents        7356304                       # Number of times rename has blocked due to SQ full
system.switch_cpus.rename.fullRegistersEvents     12918632                       # Number of times there has been no free registers
system.switch_cpus.rename.renamedOperands     14517586                       # Number of destination operands rename has renamed
system.switch_cpus.rename.lookups            24965249                       # Number of register rename lookups that rename has made
system.switch_cpus.rename.intLookups         16232510                       # Number of integer rename lookups
system.switch_cpus.rename.vecLookups            30096                       # Number of vector rename lookups
system.switch_cpus.rename.committedMaps      11554318                       # Number of HB maps that are committed
system.switch_cpus.rename.undoneMaps          2963285                       # Number of HB maps that are undone due to squashing
system.switch_cpus.rename.serializing              69                       # count of serializing insts renamed
system.switch_cpus.rename.tempSerializing           10                       # count of temporary serializing insts renamed
system.switch_cpus.rename.skidInsts           5905326                       # count of insts added to the skid buffer
system.switch_cpus.rob.reads                 62312665                       # The number of ROB reads
system.switch_cpus.rob.writes                28024772                       # The number of ROB writes
system.switch_cpus.thread_0.numInsts          9999997                       # Number of Instructions committed
system.switch_cpus.thread_0.numOps           11302860                       # Number of Ops committed
system.switch_cpus.thread_0.numMemRefs              0                       # Number of Memory References
system.tol2bus.trans_dist::ReadResp            368332                       # Transaction distribution
system.tol2bus.trans_dist::WritebackDirty      1155859                       # Transaction distribution
system.tol2bus.trans_dist::WritebackClean       188076                       # Transaction distribution
system.tol2bus.trans_dist::CleanEvict          184291                       # Transaction distribution
system.tol2bus.trans_dist::HardPFReq           542900                       # Transaction distribution
system.tol2bus.trans_dist::ReadExReq           415378                       # Transaction distribution
system.tol2bus.trans_dist::ReadExResp          415377                       # Transaction distribution
system.tol2bus.trans_dist::ReadCleanReq           174                       # Transaction distribution
system.tol2bus.trans_dist::ReadSharedReq       368152                       # Transaction distribution
system.tol2bus.trans_dist::InvalidateReq        23416                       # Transaction distribution
system.tol2bus.trans_dist::InvalidateResp        23416                       # Transaction distribution
system.tol2bus.pkt_count_system.cpu.icache.mem_side_port::system.l2.cpu_side_port          348                       # Packet count per connected requestor and responder (bytes)
system.tol2bus.pkt_count_system.cpu.dcache.mem_side_port::system.l2.cpu_side_port      2420848                       # Packet count per connected requestor and responder (bytes)
system.tol2bus.pkt_count::total               2421196                       # Packet count per connected requestor and responder (bytes)
system.tol2bus.pkt_size_system.cpu.icache.mem_side_port::system.l2.cpu_side_port        22272                       # Cumulative packet size per connected requestor and responder (bytes)
system.tol2bus.pkt_size_system.cpu.dcache.mem_side_port::system.l2.cpu_side_port    203582208                       # Cumulative packet size per connected requestor and responder (bytes)
system.tol2bus.pkt_size::total              203604480                       # Cumulative packet size per connected requestor and responder (bytes)
system.tol2bus.snoops                         1264175                       # Total snoops (count)
system.tol2bus.snoopTraffic                  68733952                       # Total snoop traffic (bytes)
system.tol2bus.snoop_fanout::samples          2071465                       # Request fanout histogram
system.tol2bus.snoop_fanout::mean            0.002355                       # Request fanout histogram
system.tol2bus.snoop_fanout::stdev           0.048470                       # Request fanout histogram
system.tol2bus.snoop_fanout::underflows             0      0.00%      0.00% # Request fanout histogram
system.tol2bus.snoop_fanout::0                2066587     99.76%     99.76% # Request fanout histogram
system.tol2bus.snoop_fanout::1                   4878      0.24%    100.00% # Request fanout histogram
system.tol2bus.snoop_fanout::2                      0      0.00%    100.00% # Request fanout histogram
system.tol2bus.snoop_fanout::3                      0      0.00%    100.00% # Request fanout histogram
system.tol2bus.snoop_fanout::4                      0      0.00%    100.00% # Request fanout histogram
system.tol2bus.snoop_fanout::overflows              0      0.00%    100.00% # Request fanout histogram
system.tol2bus.snoop_fanout::min_value              0                       # Request fanout histogram
system.tol2bus.snoop_fanout::max_value              1                       # Request fanout histogram
system.tol2bus.snoop_fanout::total            2071465                       # Request fanout histogram
system.tol2bus.power_state.pwrStateResidencyTicks::UNDEFINED  20594824400                       # Cumulative time (in ticks) in various power states
system.tol2bus.reqLayer0.occupancy         1936916859                       # Layer occupancy (ticks)
system.tol2bus.reqLayer0.utilization              9.4                       # Layer utilization (%)
system.tol2bus.respLayer0.occupancy            348000                       # Layer occupancy (ticks)
system.tol2bus.respLayer0.utilization             0.0                       # Layer utilization (%)
system.tol2bus.respLayer1.occupancy        1576436400                       # Layer occupancy (ticks)
system.tol2bus.respLayer1.utilization             7.7                       # Layer utilization (%)
system.voltage_domain.voltage                       1                       # Voltage in Volts

---------- End Simulation Statistics   ----------
