
---------- Begin Simulation Statistics ----------
final_tick                               321996278792                       # Number of ticks from beginning of simulation (restored from checkpoints and never reset)
host_inst_rate                                 424875                       # Simulator instruction rate (inst/s)
host_mem_usage                               16965264                       # Number of bytes of host memory used
host_op_rate                                   424866                       # Simulator op (including micro ops) rate (op/s)
host_seconds                                     2.35                       # Real time elapsed on the host
host_tick_rate                               91098765                       # Simulator tick rate (ticks/s)
sim_freq                                 1000000000000                       # Frequency of simulated ticks
sim_insts                                     1000036                       # Number of instructions simulated
sim_ops                                       1000036                       # Number of ops (including micro ops) simulated
sim_seconds                                  0.000214                       # Number of seconds simulated
sim_ticks                                   214426392                       # Number of ticks simulated
system.cpu.Branches                                 4                       # Number of branches fetched
system.cpu.committedInsts                          30                       # Number of instructions committed
system.cpu.committedOps                            30                       # Number of ops (including micro ops) committed
system.cpu.idle_fraction                            0                       # Percentage of idle cycles
system.cpu.not_idle_fraction                        1                       # Percentage of non-idle cycles
system.cpu.numCycles                               30                       # number of cpu cycles simulated
system.cpu.numWorkItemsCompleted                    0                       # number of work items this cpu completed
system.cpu.numWorkItemsStarted                      0                       # number of work items this cpu started
system.cpu.num_busy_cycles                         30                       # Number of busy cycles
system.cpu.num_cc_register_reads                   12                       # number of times the CC registers were read
system.cpu.num_cc_register_writes                  15                       # number of times the CC registers were written
system.cpu.num_conditional_control_insts            4                       # number of instructions that are conditional controls
system.cpu.num_fp_alu_accesses                      0                       # Number of float alu accesses
system.cpu.num_fp_insts                             0                       # number of float instructions
system.cpu.num_fp_register_reads                    0                       # number of times the floating registers were read
system.cpu.num_fp_register_writes                   0                       # number of times the floating registers were written
system.cpu.num_func_calls                           0                       # number of times a function call or return occured
system.cpu.num_idle_cycles                          0                       # Number of idle cycles
system.cpu.num_int_alu_accesses                    26                       # Number of integer alu accesses
system.cpu.num_int_insts                           26                       # number of integer instructions
system.cpu.num_int_register_reads                  30                       # number of times the integer registers were read
system.cpu.num_int_register_writes                 26                       # number of times the integer registers were written
system.cpu.num_load_insts                          13                       # Number of load instructions
system.cpu.num_mem_refs                            13                       # number of memory refs
system.cpu.num_store_insts                          0                       # Number of store instructions
system.cpu.num_vec_alu_accesses                     0                       # Number of vector alu accesses
system.cpu.num_vec_insts                            0                       # number of vector instructions
system.cpu.num_vec_register_reads                   0                       # number of times the vector registers were read
system.cpu.num_vec_register_writes                  0                       # number of times the vector registers were written
system.cpu.op_class::No_OpClass                     0      0.00%      0.00% # Class of executed instruction
system.cpu.op_class::IntAlu                        17     56.67%     56.67% # Class of executed instruction
system.cpu.op_class::IntMult                        0      0.00%     56.67% # Class of executed instruction
system.cpu.op_class::IntDiv                         0      0.00%     56.67% # Class of executed instruction
system.cpu.op_class::FloatAdd                       0      0.00%     56.67% # Class of executed instruction
system.cpu.op_class::FloatCmp                       0      0.00%     56.67% # Class of executed instruction
system.cpu.op_class::FloatCvt                       0      0.00%     56.67% # Class of executed instruction
system.cpu.op_class::FloatMult                      0      0.00%     56.67% # Class of executed instruction
system.cpu.op_class::FloatMultAcc                   0      0.00%     56.67% # Class of executed instruction
system.cpu.op_class::FloatDiv                       0      0.00%     56.67% # Class of executed instruction
system.cpu.op_class::FloatMisc                      0      0.00%     56.67% # Class of executed instruction
system.cpu.op_class::FloatSqrt                      0      0.00%     56.67% # Class of executed instruction
system.cpu.op_class::SimdAdd                        0      0.00%     56.67% # Class of executed instruction
system.cpu.op_class::SimdAddAcc                     0      0.00%     56.67% # Class of executed instruction
system.cpu.op_class::SimdAlu                        0      0.00%     56.67% # Class of executed instruction
system.cpu.op_class::SimdCmp                        0      0.00%     56.67% # Class of executed instruction
system.cpu.op_class::SimdCvt                        0      0.00%     56.67% # Class of executed instruction
system.cpu.op_class::SimdMisc                       0      0.00%     56.67% # Class of executed instruction
system.cpu.op_class::SimdMult                       0      0.00%     56.67% # Class of executed instruction
system.cpu.op_class::SimdMultAcc                    0      0.00%     56.67% # Class of executed instruction
system.cpu.op_class::SimdShift                      0      0.00%     56.67% # Class of executed instruction
system.cpu.op_class::SimdShiftAcc                   0      0.00%     56.67% # Class of executed instruction
system.cpu.op_class::SimdDiv                        0      0.00%     56.67% # Class of executed instruction
system.cpu.op_class::SimdSqrt                       0      0.00%     56.67% # Class of executed instruction
system.cpu.op_class::SimdFloatAdd                   0      0.00%     56.67% # Class of executed instruction
system.cpu.op_class::SimdFloatAlu                   0      0.00%     56.67% # Class of executed instruction
system.cpu.op_class::SimdFloatCmp                   0      0.00%     56.67% # Class of executed instruction
system.cpu.op_class::SimdFloatCvt                   0      0.00%     56.67% # Class of executed instruction
system.cpu.op_class::SimdFloatDiv                   0      0.00%     56.67% # Class of executed instruction
system.cpu.op_class::SimdFloatMisc                  0      0.00%     56.67% # Class of executed instruction
system.cpu.op_class::SimdFloatMult                  0      0.00%     56.67% # Class of executed instruction
system.cpu.op_class::SimdFloatMultAcc               0      0.00%     56.67% # Class of executed instruction
system.cpu.op_class::SimdFloatSqrt                  0      0.00%     56.67% # Class of executed instruction
system.cpu.op_class::SimdReduceAdd                  0      0.00%     56.67% # Class of executed instruction
system.cpu.op_class::SimdReduceAlu                  0      0.00%     56.67% # Class of executed instruction
system.cpu.op_class::SimdReduceCmp                  0      0.00%     56.67% # Class of executed instruction
system.cpu.op_class::SimdFloatReduceAdd             0      0.00%     56.67% # Class of executed instruction
system.cpu.op_class::SimdFloatReduceCmp             0      0.00%     56.67% # Class of executed instruction
system.cpu.op_class::SimdAes                        0      0.00%     56.67% # Class of executed instruction
system.cpu.op_class::SimdAesMix                     0      0.00%     56.67% # Class of executed instruction
system.cpu.op_class::SimdSha1Hash                   0      0.00%     56.67% # Class of executed instruction
system.cpu.op_class::SimdSha1Hash2                  0      0.00%     56.67% # Class of executed instruction
system.cpu.op_class::SimdSha256Hash                 0      0.00%     56.67% # Class of executed instruction
system.cpu.op_class::SimdSha256Hash2                0      0.00%     56.67% # Class of executed instruction
system.cpu.op_class::SimdShaSigma2                  0      0.00%     56.67% # Class of executed instruction
system.cpu.op_class::SimdShaSigma3                  0      0.00%     56.67% # Class of executed instruction
system.cpu.op_class::SimdPredAlu                    0      0.00%     56.67% # Class of executed instruction
system.cpu.op_class::MemRead                       13     43.33%    100.00% # Class of executed instruction
system.cpu.op_class::MemWrite                       0      0.00%    100.00% # Class of executed instruction
system.cpu.op_class::FloatMemRead                   0      0.00%    100.00% # Class of executed instruction
system.cpu.op_class::FloatMemWrite                  0      0.00%    100.00% # Class of executed instruction
system.cpu.op_class::IprAccess                      0      0.00%    100.00% # Class of executed instruction
system.cpu.op_class::InstPrefetch                   0      0.00%    100.00% # Class of executed instruction
system.cpu.op_class::total                         30                       # Class of executed instruction
system.cpu.workload.numSyscalls                     0                       # Number of system calls
system.membus.snoop_filter.hit_multi_requests            0                       # Number of requests hitting in the snoop filter with multiple (>1) holders of the requested data.
system.membus.snoop_filter.hit_multi_snoops            0                       # Number of snoops hitting in the snoop filter with multiple (>1) holders of the requested data.
system.membus.snoop_filter.hit_single_requests            0                       # Number of requests hitting in the snoop filter with a single holder of the requested data.
system.membus.snoop_filter.hit_single_snoops            0                       # Number of snoops hitting in the snoop filter with a single holder of the requested data.
system.membus.snoop_filter.tot_requests          2302                       # Total number of requests made to the snoop filter.
system.membus.snoop_filter.tot_snoops               0                       # Total number of snoops made to the snoop filter.
system.switch_cpus.cc_regfile_reads            477171                       # number of cc regfile reads
system.switch_cpus.cc_regfile_writes           477264                       # number of cc regfile writes
system.switch_cpus.committedInsts             1000006                       # Number of Instructions Simulated
system.switch_cpus.committedOps               1000006                       # Number of Ops (including micro ops) Simulated
system.switch_cpus.cpi                       0.663823                       # CPI: Cycles Per Instruction
system.switch_cpus.cpi_total                 0.663823                       # CPI: Total CPI of All Threads
system.switch_cpus.idleCycles                     879                       # Total number of cycles that the CPU has spent unscheduled due to idling
system.switch_cpus.iew.branchMispredicts          598                       # Number of branch mispredicts detected at execute
system.switch_cpus.iew.exec_branches           159080                       # Number of branches executed
system.switch_cpus.iew.exec_nop                     6                       # number of nop insts executed
system.switch_cpus.iew.exec_rate             1.521963                       # Inst execution rate
system.switch_cpus.iew.exec_refs               483678                       # number of memory reference insts executed
system.switch_cpus.iew.exec_stores              46194                       # Number of stores executed
system.switch_cpus.iew.exec_swp                     0                       # number of swp insts executed
system.switch_cpus.iew.iewBlockCycles            1646                       # Number of cycles IEW is blocking
system.switch_cpus.iew.iewDispLoadInsts        438261                       # Number of dispatched load instructions
system.switch_cpus.iew.iewDispNonSpecInsts            0                       # Number of dispatched non-speculative instructions
system.switch_cpus.iew.iewDispSquashedInsts            0                       # Number of squashed instructions skipped by dispatch
system.switch_cpus.iew.iewDispStoreInsts        46973                       # Number of dispatched store instructions
system.switch_cpus.iew.iewDispatchedInsts      1015637                       # Number of instructions dispatched to IQ
system.switch_cpus.iew.iewExecLoadInsts        437484                       # Number of load instructions executed
system.switch_cpus.iew.iewExecSquashedInsts          278                       # Number of squashed instructions skipped in execute
system.switch_cpus.iew.iewExecutedInsts       1010320                       # Number of executed instructions
system.switch_cpus.iew.iewIQFullEvents              5                       # Number of times the IQ has become full, causing a stall
system.switch_cpus.iew.iewIdleCycles                0                       # Number of cycles IEW is idle
system.switch_cpus.iew.iewLSQFullEvents         78111                       # Number of times the LSQ has become full, causing a stall
system.switch_cpus.iew.iewSquashCycles            619                       # Number of cycles IEW is squashing
system.switch_cpus.iew.iewUnblockCycles         78091                       # Number of cycles IEW is unblocking
system.switch_cpus.iew.memOrderViolationEvents           35                       # Number of memory order violations
system.switch_cpus.iew.predictedNotTakenIncorrect           85                       # Number of branches that were predicted not taken incorrectly
system.switch_cpus.iew.predictedTakenIncorrect          513                       # Number of branches that were predicted taken incorrectly
system.switch_cpus.iew.wb_consumers           1119195                       # num instructions consuming a value
system.switch_cpus.iew.wb_count               1008363                       # cumulative count of insts written-back
system.switch_cpus.iew.wb_fanout             0.715747                       # average fanout of values written-back
system.switch_cpus.iew.wb_producers            801061                       # num instructions producing a value
system.switch_cpus.iew.wb_rate               1.519015                       # insts written-back per cycle
system.switch_cpus.iew.wb_sent                1008501                       # cumulative count of insts sent to commit
system.switch_cpus.int_regfile_reads          1042271                       # number of integer regfile reads
system.switch_cpus.int_regfile_writes          803272                       # number of integer regfile writes
system.switch_cpus.ipc                       1.506426                       # IPC: Instructions Per Cycle
system.switch_cpus.ipc_total                 1.506426                       # IPC: Total IPC of All Threads
system.switch_cpus.iq.FU_type_0::No_OpClass            0      0.00%      0.00% # Type of FU issued
system.switch_cpus.iq.FU_type_0::IntAlu        526690     52.12%     52.12% # Type of FU issued
system.switch_cpus.iq.FU_type_0::IntMult            0      0.00%     52.12% # Type of FU issued
system.switch_cpus.iq.FU_type_0::IntDiv             0      0.00%     52.12% # Type of FU issued
system.switch_cpus.iq.FU_type_0::FloatAdd            0      0.00%     52.12% # Type of FU issued
system.switch_cpus.iq.FU_type_0::FloatCmp            0      0.00%     52.12% # Type of FU issued
system.switch_cpus.iq.FU_type_0::FloatCvt            0      0.00%     52.12% # Type of FU issued
system.switch_cpus.iq.FU_type_0::FloatMult            0      0.00%     52.12% # Type of FU issued
system.switch_cpus.iq.FU_type_0::FloatMultAcc            0      0.00%     52.12% # Type of FU issued
system.switch_cpus.iq.FU_type_0::FloatDiv            0      0.00%     52.12% # Type of FU issued
system.switch_cpus.iq.FU_type_0::FloatMisc            0      0.00%     52.12% # Type of FU issued
system.switch_cpus.iq.FU_type_0::FloatSqrt            0      0.00%     52.12% # Type of FU issued
system.switch_cpus.iq.FU_type_0::SimdAdd            0      0.00%     52.12% # Type of FU issued
system.switch_cpus.iq.FU_type_0::SimdAddAcc            0      0.00%     52.12% # Type of FU issued
system.switch_cpus.iq.FU_type_0::SimdAlu            0      0.00%     52.12% # Type of FU issued
system.switch_cpus.iq.FU_type_0::SimdCmp            0      0.00%     52.12% # Type of FU issued
system.switch_cpus.iq.FU_type_0::SimdCvt            0      0.00%     52.12% # Type of FU issued
system.switch_cpus.iq.FU_type_0::SimdMisc            0      0.00%     52.12% # Type of FU issued
system.switch_cpus.iq.FU_type_0::SimdMult            0      0.00%     52.12% # Type of FU issued
system.switch_cpus.iq.FU_type_0::SimdMultAcc            0      0.00%     52.12% # Type of FU issued
system.switch_cpus.iq.FU_type_0::SimdShift            0      0.00%     52.12% # Type of FU issued
system.switch_cpus.iq.FU_type_0::SimdShiftAcc            0      0.00%     52.12% # Type of FU issued
system.switch_cpus.iq.FU_type_0::SimdDiv            0      0.00%     52.12% # Type of FU issued
system.switch_cpus.iq.FU_type_0::SimdSqrt            0      0.00%     52.12% # Type of FU issued
system.switch_cpus.iq.FU_type_0::SimdFloatAdd            0      0.00%     52.12% # Type of FU issued
system.switch_cpus.iq.FU_type_0::SimdFloatAlu            0      0.00%     52.12% # Type of FU issued
system.switch_cpus.iq.FU_type_0::SimdFloatCmp            0      0.00%     52.12% # Type of FU issued
system.switch_cpus.iq.FU_type_0::SimdFloatCvt            0      0.00%     52.12% # Type of FU issued
system.switch_cpus.iq.FU_type_0::SimdFloatDiv            0      0.00%     52.12% # Type of FU issued
system.switch_cpus.iq.FU_type_0::SimdFloatMisc            0      0.00%     52.12% # Type of FU issued
system.switch_cpus.iq.FU_type_0::SimdFloatMult            0      0.00%     52.12% # Type of FU issued
system.switch_cpus.iq.FU_type_0::SimdFloatMultAcc            0      0.00%     52.12% # Type of FU issued
system.switch_cpus.iq.FU_type_0::SimdFloatSqrt            0      0.00%     52.12% # Type of FU issued
system.switch_cpus.iq.FU_type_0::SimdReduceAdd            0      0.00%     52.12% # Type of FU issued
system.switch_cpus.iq.FU_type_0::SimdReduceAlu            0      0.00%     52.12% # Type of FU issued
system.switch_cpus.iq.FU_type_0::SimdReduceCmp            0      0.00%     52.12% # Type of FU issued
system.switch_cpus.iq.FU_type_0::SimdFloatReduceAdd            0      0.00%     52.12% # Type of FU issued
system.switch_cpus.iq.FU_type_0::SimdFloatReduceCmp            0      0.00%     52.12% # Type of FU issued
system.switch_cpus.iq.FU_type_0::SimdAes            0      0.00%     52.12% # Type of FU issued
system.switch_cpus.iq.FU_type_0::SimdAesMix            0      0.00%     52.12% # Type of FU issued
system.switch_cpus.iq.FU_type_0::SimdSha1Hash            0      0.00%     52.12% # Type of FU issued
system.switch_cpus.iq.FU_type_0::SimdSha1Hash2            0      0.00%     52.12% # Type of FU issued
system.switch_cpus.iq.FU_type_0::SimdSha256Hash            0      0.00%     52.12% # Type of FU issued
system.switch_cpus.iq.FU_type_0::SimdSha256Hash2            0      0.00%     52.12% # Type of FU issued
system.switch_cpus.iq.FU_type_0::SimdShaSigma2            0      0.00%     52.12% # Type of FU issued
system.switch_cpus.iq.FU_type_0::SimdShaSigma3            0      0.00%     52.12% # Type of FU issued
system.switch_cpus.iq.FU_type_0::SimdPredAlu            0      0.00%     52.12% # Type of FU issued
system.switch_cpus.iq.FU_type_0::MemRead       437681     43.31%     95.43% # Type of FU issued
system.switch_cpus.iq.FU_type_0::MemWrite        46227      4.57%    100.00% # Type of FU issued
system.switch_cpus.iq.FU_type_0::FloatMemRead            0      0.00%    100.00% # Type of FU issued
system.switch_cpus.iq.FU_type_0::FloatMemWrite            0      0.00%    100.00% # Type of FU issued
system.switch_cpus.iq.FU_type_0::IprAccess            0      0.00%    100.00% # Type of FU issued
system.switch_cpus.iq.FU_type_0::InstPrefetch            0      0.00%    100.00% # Type of FU issued
system.switch_cpus.iq.FU_type_0::total        1010598                       # Type of FU issued
system.switch_cpus.iq.fp_alu_accesses               0                       # Number of floating point alu accesses
system.switch_cpus.iq.fp_inst_queue_reads            0                       # Number of floating instruction queue reads
system.switch_cpus.iq.fp_inst_queue_wakeup_accesses            0                       # Number of floating instruction queue wakeup accesses
system.switch_cpus.iq.fp_inst_queue_writes            0                       # Number of floating instruction queue writes
system.switch_cpus.iq.fu_busy_cnt               29887                       # FU busy when requested
system.switch_cpus.iq.fu_busy_rate           0.029574                       # FU busy rate (busy events/executed inst)
system.switch_cpus.iq.fu_full::No_OpClass            0      0.00%      0.00% # attempts to use FU when none available
system.switch_cpus.iq.fu_full::IntAlu            6323     21.16%     21.16% # attempts to use FU when none available
system.switch_cpus.iq.fu_full::IntMult              0      0.00%     21.16% # attempts to use FU when none available
system.switch_cpus.iq.fu_full::IntDiv               0      0.00%     21.16% # attempts to use FU when none available
system.switch_cpus.iq.fu_full::FloatAdd             0      0.00%     21.16% # attempts to use FU when none available
system.switch_cpus.iq.fu_full::FloatCmp             0      0.00%     21.16% # attempts to use FU when none available
system.switch_cpus.iq.fu_full::FloatCvt             0      0.00%     21.16% # attempts to use FU when none available
system.switch_cpus.iq.fu_full::FloatMult            0      0.00%     21.16% # attempts to use FU when none available
system.switch_cpus.iq.fu_full::FloatMultAcc            0      0.00%     21.16% # attempts to use FU when none available
system.switch_cpus.iq.fu_full::FloatDiv             0      0.00%     21.16% # attempts to use FU when none available
system.switch_cpus.iq.fu_full::FloatMisc            0      0.00%     21.16% # attempts to use FU when none available
system.switch_cpus.iq.fu_full::FloatSqrt            0      0.00%     21.16% # attempts to use FU when none available
system.switch_cpus.iq.fu_full::SimdAdd              0      0.00%     21.16% # attempts to use FU when none available
system.switch_cpus.iq.fu_full::SimdAddAcc            0      0.00%     21.16% # attempts to use FU when none available
system.switch_cpus.iq.fu_full::SimdAlu              0      0.00%     21.16% # attempts to use FU when none available
system.switch_cpus.iq.fu_full::SimdCmp              0      0.00%     21.16% # attempts to use FU when none available
system.switch_cpus.iq.fu_full::SimdCvt              0      0.00%     21.16% # attempts to use FU when none available
system.switch_cpus.iq.fu_full::SimdMisc             0      0.00%     21.16% # attempts to use FU when none available
system.switch_cpus.iq.fu_full::SimdMult             0      0.00%     21.16% # attempts to use FU when none available
system.switch_cpus.iq.fu_full::SimdMultAcc            0      0.00%     21.16% # attempts to use FU when none available
system.switch_cpus.iq.fu_full::SimdShift            0      0.00%     21.16% # attempts to use FU when none available
system.switch_cpus.iq.fu_full::SimdShiftAcc            0      0.00%     21.16% # attempts to use FU when none available
system.switch_cpus.iq.fu_full::SimdDiv              0      0.00%     21.16% # attempts to use FU when none available
system.switch_cpus.iq.fu_full::SimdSqrt             0      0.00%     21.16% # attempts to use FU when none available
system.switch_cpus.iq.fu_full::SimdFloatAdd            0      0.00%     21.16% # attempts to use FU when none available
system.switch_cpus.iq.fu_full::SimdFloatAlu            0      0.00%     21.16% # attempts to use FU when none available
system.switch_cpus.iq.fu_full::SimdFloatCmp            0      0.00%     21.16% # attempts to use FU when none available
system.switch_cpus.iq.fu_full::SimdFloatCvt            0      0.00%     21.16% # attempts to use FU when none available
system.switch_cpus.iq.fu_full::SimdFloatDiv            0      0.00%     21.16% # attempts to use FU when none available
system.switch_cpus.iq.fu_full::SimdFloatMisc            0      0.00%     21.16% # attempts to use FU when none available
system.switch_cpus.iq.fu_full::SimdFloatMult            0      0.00%     21.16% # attempts to use FU when none available
system.switch_cpus.iq.fu_full::SimdFloatMultAcc            0      0.00%     21.16% # attempts to use FU when none available
system.switch_cpus.iq.fu_full::SimdFloatSqrt            0      0.00%     21.16% # attempts to use FU when none available
system.switch_cpus.iq.fu_full::SimdReduceAdd            0      0.00%     21.16% # attempts to use FU when none available
system.switch_cpus.iq.fu_full::SimdReduceAlu            0      0.00%     21.16% # attempts to use FU when none available
system.switch_cpus.iq.fu_full::SimdReduceCmp            0      0.00%     21.16% # attempts to use FU when none available
system.switch_cpus.iq.fu_full::SimdFloatReduceAdd            0      0.00%     21.16% # attempts to use FU when none available
system.switch_cpus.iq.fu_full::SimdFloatReduceCmp            0      0.00%     21.16% # attempts to use FU when none available
system.switch_cpus.iq.fu_full::SimdAes              0      0.00%     21.16% # attempts to use FU when none available
system.switch_cpus.iq.fu_full::SimdAesMix            0      0.00%     21.16% # attempts to use FU when none available
system.switch_cpus.iq.fu_full::SimdSha1Hash            0      0.00%     21.16% # attempts to use FU when none available
system.switch_cpus.iq.fu_full::SimdSha1Hash2            0      0.00%     21.16% # attempts to use FU when none available
system.switch_cpus.iq.fu_full::SimdSha256Hash            0      0.00%     21.16% # attempts to use FU when none available
system.switch_cpus.iq.fu_full::SimdSha256Hash2            0      0.00%     21.16% # attempts to use FU when none available
system.switch_cpus.iq.fu_full::SimdShaSigma2            0      0.00%     21.16% # attempts to use FU when none available
system.switch_cpus.iq.fu_full::SimdShaSigma3            0      0.00%     21.16% # attempts to use FU when none available
system.switch_cpus.iq.fu_full::SimdPredAlu            0      0.00%     21.16% # attempts to use FU when none available
system.switch_cpus.iq.fu_full::MemRead          23339     78.09%     99.25% # attempts to use FU when none available
system.switch_cpus.iq.fu_full::MemWrite           225      0.75%    100.00% # attempts to use FU when none available
system.switch_cpus.iq.fu_full::FloatMemRead            0      0.00%    100.00% # attempts to use FU when none available
system.switch_cpus.iq.fu_full::FloatMemWrite            0      0.00%    100.00% # attempts to use FU when none available
system.switch_cpus.iq.fu_full::IprAccess            0      0.00%    100.00% # attempts to use FU when none available
system.switch_cpus.iq.fu_full::InstPrefetch            0      0.00%    100.00% # attempts to use FU when none available
system.switch_cpus.iq.int_alu_accesses        1040485                       # Number of integer alu accesses
system.switch_cpus.iq.int_inst_queue_reads      2714048                       # Number of integer instruction queue reads
system.switch_cpus.iq.int_inst_queue_wakeup_accesses      1008363                       # Number of integer instruction queue wakeup accesses
system.switch_cpus.iq.int_inst_queue_writes      1031245                       # Number of integer instruction queue writes
system.switch_cpus.iq.iqInstsAdded            1015631                       # Number of instructions added to the IQ (excludes non-spec)
system.switch_cpus.iq.iqInstsIssued           1010598                       # Number of instructions issued
system.switch_cpus.iq.iqSquashedInstsExamined        15579                       # Number of squashed instructions iterated over during squash; mainly for profiling
system.switch_cpus.iq.iqSquashedInstsIssued           17                       # Number of squashed instructions issued
system.switch_cpus.iq.iqSquashedOperandsExamined        11501                       # Number of squashed operands that are examined and possibly removed from graph
system.switch_cpus.iq.issued_per_cycle::samples       662948                       # Number of insts issued each cycle
system.switch_cpus.iq.issued_per_cycle::mean     1.524400                       # Number of insts issued each cycle
system.switch_cpus.iq.issued_per_cycle::stdev     1.965703                       # Number of insts issued each cycle
system.switch_cpus.iq.issued_per_cycle::underflows            0      0.00%      0.00% # Number of insts issued each cycle
system.switch_cpus.iq.issued_per_cycle::0       342137     51.61%     51.61% # Number of insts issued each cycle
system.switch_cpus.iq.issued_per_cycle::1        68588     10.35%     61.95% # Number of insts issued each cycle
system.switch_cpus.iq.issued_per_cycle::2        56871      8.58%     70.53% # Number of insts issued each cycle
system.switch_cpus.iq.issued_per_cycle::3        65524      9.88%     80.42% # Number of insts issued each cycle
system.switch_cpus.iq.issued_per_cycle::4        63159      9.53%     89.94% # Number of insts issued each cycle
system.switch_cpus.iq.issued_per_cycle::5        35183      5.31%     95.25% # Number of insts issued each cycle
system.switch_cpus.iq.issued_per_cycle::6        21154      3.19%     98.44% # Number of insts issued each cycle
system.switch_cpus.iq.issued_per_cycle::7         6435      0.97%     99.41% # Number of insts issued each cycle
system.switch_cpus.iq.issued_per_cycle::8         3897      0.59%    100.00% # Number of insts issued each cycle
system.switch_cpus.iq.issued_per_cycle::overflows            0      0.00%    100.00% # Number of insts issued each cycle
system.switch_cpus.iq.issued_per_cycle::min_value            0                       # Number of insts issued each cycle
system.switch_cpus.iq.issued_per_cycle::max_value            8                       # Number of insts issued each cycle
system.switch_cpus.iq.issued_per_cycle::total       662948                       # Number of insts issued each cycle
system.switch_cpus.iq.rate                   1.522382                       # Inst issue rate
system.switch_cpus.iq.vec_alu_accesses              0                       # Number of vector alu accesses
system.switch_cpus.iq.vec_inst_queue_reads            0                       # Number of vector instruction queue reads
system.switch_cpus.iq.vec_inst_queue_wakeup_accesses            0                       # Number of vector instruction queue wakeup accesses
system.switch_cpus.iq.vec_inst_queue_writes            0                       # Number of vector instruction queue writes
system.switch_cpus.memDep0.conflictingLoads       113428                       # Number of conflicting loads.
system.switch_cpus.memDep0.conflictingStores         7600                       # Number of conflicting stores.
system.switch_cpus.memDep0.insertedLoads       438261                       # Number of loads inserted to the mem dependence unit.
system.switch_cpus.memDep0.insertedStores        46973                       # Number of stores inserted to the mem dependence unit.
system.switch_cpus.misc_regfile_reads         2066698                       # number of misc regfile reads
system.switch_cpus.misc_regfile_writes              1                       # number of misc regfile writes
system.switch_cpus.numCycles                   663827                       # number of cpu cycles simulated
system.switch_cpus.numWorkItemsCompleted            0                       # number of work items this cpu completed
system.switch_cpus.numWorkItemsStarted              0                       # number of work items this cpu started
system.switch_cpus.timesIdled                       8                       # Number of times that the entire CPU went into an idle state and unscheduled itself
system.switch_cpus.vec_regfile_writes              44                       # number of vector regfile writes
system.tol2bus.snoop_filter.hit_multi_requests            0                       # Number of requests hitting in the snoop filter with multiple (>1) holders of the requested data.
system.tol2bus.snoop_filter.hit_multi_snoops            0                       # Number of snoops hitting in the snoop filter with multiple (>1) holders of the requested data.
system.tol2bus.snoop_filter.hit_single_requests        19848                       # Number of requests hitting in the snoop filter with a single holder of the requested data.
system.tol2bus.snoop_filter.hit_single_snoops            0                       # Number of snoops hitting in the snoop filter with a single holder of the requested data.
system.tol2bus.snoop_filter.tot_requests        39965                       # Total number of requests made to the snoop filter.
system.tol2bus.snoop_filter.tot_snoops              0                       # Total number of snoops made to the snoop filter.
system.clk_domain.clock                          1000                       # Clock period in ticks
system.cpu.dcache.demand_hits::.cpu.data            9                       # number of demand (read+write) hits
system.cpu.dcache.demand_hits::.switch_cpus.data       313188                       # number of demand (read+write) hits
system.cpu.dcache.demand_hits::total           313197                       # number of demand (read+write) hits
system.cpu.dcache.overall_hits::.cpu.data            9                       # number of overall hits
system.cpu.dcache.overall_hits::.switch_cpus.data       313188                       # number of overall hits
system.cpu.dcache.overall_hits::total          313197                       # number of overall hits
system.cpu.dcache.demand_misses::.cpu.data            4                       # number of demand (read+write) misses
system.cpu.dcache.demand_misses::.switch_cpus.data        42882                       # number of demand (read+write) misses
system.cpu.dcache.demand_misses::total          42886                       # number of demand (read+write) misses
system.cpu.dcache.overall_misses::.cpu.data            4                       # number of overall misses
system.cpu.dcache.overall_misses::.switch_cpus.data        42882                       # number of overall misses
system.cpu.dcache.overall_misses::total         42886                       # number of overall misses
system.cpu.dcache.demand_miss_latency::.switch_cpus.data    584986915                       # number of demand (read+write) miss cycles
system.cpu.dcache.demand_miss_latency::total    584986915                       # number of demand (read+write) miss cycles
system.cpu.dcache.overall_miss_latency::.switch_cpus.data    584986915                       # number of overall miss cycles
system.cpu.dcache.overall_miss_latency::total    584986915                       # number of overall miss cycles
system.cpu.dcache.demand_accesses::.cpu.data           13                       # number of demand (read+write) accesses
system.cpu.dcache.demand_accesses::.switch_cpus.data       356070                       # number of demand (read+write) accesses
system.cpu.dcache.demand_accesses::total       356083                       # number of demand (read+write) accesses
system.cpu.dcache.overall_accesses::.cpu.data           13                       # number of overall (read+write) accesses
system.cpu.dcache.overall_accesses::.switch_cpus.data       356070                       # number of overall (read+write) accesses
system.cpu.dcache.overall_accesses::total       356083                       # number of overall (read+write) accesses
system.cpu.dcache.demand_miss_rate::.cpu.data     0.307692                       # miss rate for demand accesses
system.cpu.dcache.demand_miss_rate::.switch_cpus.data     0.120431                       # miss rate for demand accesses
system.cpu.dcache.demand_miss_rate::total     0.120438                       # miss rate for demand accesses
system.cpu.dcache.overall_miss_rate::.cpu.data     0.307692                       # miss rate for overall accesses
system.cpu.dcache.overall_miss_rate::.switch_cpus.data     0.120431                       # miss rate for overall accesses
system.cpu.dcache.overall_miss_rate::total     0.120438                       # miss rate for overall accesses
system.cpu.dcache.demand_avg_miss_latency::.switch_cpus.data 13641.782450                       # average overall miss latency
system.cpu.dcache.demand_avg_miss_latency::total 13640.510073                       # average overall miss latency
system.cpu.dcache.overall_avg_miss_latency::.switch_cpus.data 13641.782450                       # average overall miss latency
system.cpu.dcache.overall_avg_miss_latency::total 13640.510073                       # average overall miss latency
system.cpu.dcache.blocked_cycles::no_mshrs        36770                       # number of cycles access was blocked
system.cpu.dcache.blocked_cycles::no_targets            0                       # number of cycles access was blocked
system.cpu.dcache.blocked::no_mshrs              2589                       # number of cycles access was blocked
system.cpu.dcache.blocked::no_targets               0                       # number of cycles access was blocked
system.cpu.dcache.avg_blocked_cycles::no_mshrs    14.202395                       # average number of cycles each access was blocked
system.cpu.dcache.avg_blocked_cycles::no_targets          nan                       # average number of cycles each access was blocked
system.cpu.dcache.writebacks::.writebacks          500                       # number of writebacks
system.cpu.dcache.writebacks::total               500                       # number of writebacks
system.cpu.dcache.demand_mshr_hits::.switch_cpus.data        22781                       # number of demand (read+write) MSHR hits
system.cpu.dcache.demand_mshr_hits::total        22781                       # number of demand (read+write) MSHR hits
system.cpu.dcache.overall_mshr_hits::.switch_cpus.data        22781                       # number of overall MSHR hits
system.cpu.dcache.overall_mshr_hits::total        22781                       # number of overall MSHR hits
system.cpu.dcache.demand_mshr_misses::.switch_cpus.data        20101                       # number of demand (read+write) MSHR misses
system.cpu.dcache.demand_mshr_misses::total        20101                       # number of demand (read+write) MSHR misses
system.cpu.dcache.overall_mshr_misses::.switch_cpus.data        20101                       # number of overall MSHR misses
system.cpu.dcache.overall_mshr_misses::total        20101                       # number of overall MSHR misses
system.cpu.dcache.demand_mshr_miss_latency::.switch_cpus.data    302167146                       # number of demand (read+write) MSHR miss cycles
system.cpu.dcache.demand_mshr_miss_latency::total    302167146                       # number of demand (read+write) MSHR miss cycles
system.cpu.dcache.overall_mshr_miss_latency::.switch_cpus.data    302167146                       # number of overall MSHR miss cycles
system.cpu.dcache.overall_mshr_miss_latency::total    302167146                       # number of overall MSHR miss cycles
system.cpu.dcache.demand_mshr_miss_rate::.switch_cpus.data     0.056452                       # mshr miss rate for demand accesses
system.cpu.dcache.demand_mshr_miss_rate::total     0.056450                       # mshr miss rate for demand accesses
system.cpu.dcache.overall_mshr_miss_rate::.switch_cpus.data     0.056452                       # mshr miss rate for overall accesses
system.cpu.dcache.overall_mshr_miss_rate::total     0.056450                       # mshr miss rate for overall accesses
system.cpu.dcache.demand_avg_mshr_miss_latency::.switch_cpus.data 15032.443461                       # average overall mshr miss latency
system.cpu.dcache.demand_avg_mshr_miss_latency::total 15032.443461                       # average overall mshr miss latency
system.cpu.dcache.overall_avg_mshr_miss_latency::.switch_cpus.data 15032.443461                       # average overall mshr miss latency
system.cpu.dcache.overall_avg_mshr_miss_latency::total 15032.443461                       # average overall mshr miss latency
system.cpu.dcache.replacements                  19848                       # number of replacements
system.cpu.dcache.ReadReq_hits::.cpu.data            9                       # number of ReadReq hits
system.cpu.dcache.ReadReq_hits::.switch_cpus.data       267858                       # number of ReadReq hits
system.cpu.dcache.ReadReq_hits::total          267867                       # number of ReadReq hits
system.cpu.dcache.ReadReq_misses::.cpu.data            4                       # number of ReadReq misses
system.cpu.dcache.ReadReq_misses::.switch_cpus.data        42376                       # number of ReadReq misses
system.cpu.dcache.ReadReq_misses::total         42380                       # number of ReadReq misses
system.cpu.dcache.ReadReq_miss_latency::.switch_cpus.data    558134310                       # number of ReadReq miss cycles
system.cpu.dcache.ReadReq_miss_latency::total    558134310                       # number of ReadReq miss cycles
system.cpu.dcache.ReadReq_accesses::.cpu.data           13                       # number of ReadReq accesses(hits+misses)
system.cpu.dcache.ReadReq_accesses::.switch_cpus.data       310234                       # number of ReadReq accesses(hits+misses)
system.cpu.dcache.ReadReq_accesses::total       310247                       # number of ReadReq accesses(hits+misses)
system.cpu.dcache.ReadReq_miss_rate::.cpu.data     0.307692                       # miss rate for ReadReq accesses
system.cpu.dcache.ReadReq_miss_rate::.switch_cpus.data     0.136594                       # miss rate for ReadReq accesses
system.cpu.dcache.ReadReq_miss_rate::total     0.136601                       # miss rate for ReadReq accesses
system.cpu.dcache.ReadReq_avg_miss_latency::.switch_cpus.data 13171.000330                       # average ReadReq miss latency
system.cpu.dcache.ReadReq_avg_miss_latency::total 13169.757197                       # average ReadReq miss latency
system.cpu.dcache.ReadReq_mshr_hits::.switch_cpus.data        22781                       # number of ReadReq MSHR hits
system.cpu.dcache.ReadReq_mshr_hits::total        22781                       # number of ReadReq MSHR hits
system.cpu.dcache.ReadReq_mshr_misses::.switch_cpus.data        19595                       # number of ReadReq MSHR misses
system.cpu.dcache.ReadReq_mshr_misses::total        19595                       # number of ReadReq MSHR misses
system.cpu.dcache.ReadReq_mshr_miss_latency::.switch_cpus.data    275641417                       # number of ReadReq MSHR miss cycles
system.cpu.dcache.ReadReq_mshr_miss_latency::total    275641417                       # number of ReadReq MSHR miss cycles
system.cpu.dcache.ReadReq_mshr_miss_rate::.switch_cpus.data     0.063162                       # mshr miss rate for ReadReq accesses
system.cpu.dcache.ReadReq_mshr_miss_rate::total     0.063159                       # mshr miss rate for ReadReq accesses
system.cpu.dcache.ReadReq_avg_mshr_miss_latency::.switch_cpus.data 14066.926104                       # average ReadReq mshr miss latency
system.cpu.dcache.ReadReq_avg_mshr_miss_latency::total 14066.926104                       # average ReadReq mshr miss latency
system.cpu.dcache.WriteReq_hits::.switch_cpus.data        45330                       # number of WriteReq hits
system.cpu.dcache.WriteReq_hits::total          45330                       # number of WriteReq hits
system.cpu.dcache.WriteReq_misses::.switch_cpus.data          506                       # number of WriteReq misses
system.cpu.dcache.WriteReq_misses::total          506                       # number of WriteReq misses
system.cpu.dcache.WriteReq_miss_latency::.switch_cpus.data     26852605                       # number of WriteReq miss cycles
system.cpu.dcache.WriteReq_miss_latency::total     26852605                       # number of WriteReq miss cycles
system.cpu.dcache.WriteReq_accesses::.switch_cpus.data        45836                       # number of WriteReq accesses(hits+misses)
system.cpu.dcache.WriteReq_accesses::total        45836                       # number of WriteReq accesses(hits+misses)
system.cpu.dcache.WriteReq_miss_rate::.switch_cpus.data     0.011039                       # miss rate for WriteReq accesses
system.cpu.dcache.WriteReq_miss_rate::total     0.011039                       # miss rate for WriteReq accesses
system.cpu.dcache.WriteReq_avg_miss_latency::.switch_cpus.data 53068.389328                       # average WriteReq miss latency
system.cpu.dcache.WriteReq_avg_miss_latency::total 53068.389328                       # average WriteReq miss latency
system.cpu.dcache.WriteReq_mshr_misses::.switch_cpus.data          506                       # number of WriteReq MSHR misses
system.cpu.dcache.WriteReq_mshr_misses::total          506                       # number of WriteReq MSHR misses
system.cpu.dcache.WriteReq_mshr_miss_latency::.switch_cpus.data     26525729                       # number of WriteReq MSHR miss cycles
system.cpu.dcache.WriteReq_mshr_miss_latency::total     26525729                       # number of WriteReq MSHR miss cycles
system.cpu.dcache.WriteReq_mshr_miss_rate::.switch_cpus.data     0.011039                       # mshr miss rate for WriteReq accesses
system.cpu.dcache.WriteReq_mshr_miss_rate::total     0.011039                       # mshr miss rate for WriteReq accesses
system.cpu.dcache.WriteReq_avg_mshr_miss_latency::.switch_cpus.data 52422.389328                       # average WriteReq mshr miss latency
system.cpu.dcache.WriteReq_avg_mshr_miss_latency::total 52422.389328                       # average WriteReq mshr miss latency
system.cpu.dcache.power_state.pwrStateResidencyTicks::UNDEFINED 321996278792                       # Cumulative time (in ticks) in various power states
system.cpu.dcache.tags.tagsinuse           250.038985                       # Cycle average of tags in use
system.cpu.dcache.tags.total_refs               61176                       # Total number of references to valid blocks.
system.cpu.dcache.tags.sampled_refs             19848                       # Sample count of references to valid blocks.
system.cpu.dcache.tags.avg_refs              3.082225                       # Average number of references to valid blocks.
system.cpu.dcache.tags.warmup_cycle      321781852981                       # Cycle when the warmup percentage was hit.
system.cpu.dcache.tags.occ_blocks::.cpu.data     2.105043                       # Average occupied blocks per requestor
system.cpu.dcache.tags.occ_blocks::.switch_cpus.data   247.933942                       # Average occupied blocks per requestor
system.cpu.dcache.tags.occ_percent::.cpu.data     0.008223                       # Average percentage of cache occupancy
system.cpu.dcache.tags.occ_percent::.switch_cpus.data     0.968492                       # Average percentage of cache occupancy
system.cpu.dcache.tags.occ_percent::total     0.976715                       # Average percentage of cache occupancy
system.cpu.dcache.tags.occ_task_id_blocks::1024          256                       # Occupied blocks per task id
system.cpu.dcache.tags.age_task_id_blocks_1024::0          252                       # Occupied blocks per task id
system.cpu.dcache.tags.age_task_id_blocks_1024::1            2                       # Occupied blocks per task id
system.cpu.dcache.tags.age_task_id_blocks_1024::2            2                       # Occupied blocks per task id
system.cpu.dcache.tags.occ_task_id_percent::1024            1                       # Percentage of cache occupancy per task id
system.cpu.dcache.tags.tag_accesses           2868768                       # Number of tag accesses
system.cpu.dcache.tags.data_accesses          2868768                       # Number of data accesses
system.cpu.dcache.tags.power_state.pwrStateResidencyTicks::UNDEFINED 321996278792                       # Cumulative time (in ticks) in various power states
system.cpu.dtb.instHits                             0                       # ITB inst hits
system.cpu.dtb.instMisses                           0                       # ITB inst misses
system.cpu.dtb.readHits                             0                       # DTB read hits
system.cpu.dtb.readMisses                           0                       # DTB read misses
system.cpu.dtb.writeHits                            0                       # DTB write hits
system.cpu.dtb.writeMisses                          0                       # DTB write misses
system.cpu.dtb.inserts                              0                       # Number of times an entry is inserted into the TLB
system.cpu.dtb.flushTlb                             2                       # Number of times complete TLB was flushed
system.cpu.dtb.flushTlbMva                          0                       # Number of times TLB was flushed by MVA
system.cpu.dtb.flushTlbMvaAsid                      0                       # Number of times TLB was flushed by MVA & ASID
system.cpu.dtb.flushTlbAsid                         0                       # Number of times TLB was flushed by ASID
system.cpu.dtb.flushedEntries                       0                       # Number of entries that have been flushed from TLB
system.cpu.dtb.alignFaults                          0                       # Number of TLB faults due to alignment restrictions
system.cpu.dtb.prefetchFaults                       0                       # Number of TLB faults due to prefetch
system.cpu.dtb.domainFaults                         0                       # Number of TLB faults due to domain restrictions
system.cpu.dtb.permsFaults                          0                       # Number of TLB faults due to permissions restrictions
system.cpu.dtb.readAccesses                         0                       # DTB read accesses
system.cpu.dtb.writeAccesses                        0                       # DTB write accesses
system.cpu.dtb.instAccesses                         0                       # ITB inst accesses
system.cpu.dtb.hits                                 0                       # Total TLB (inst and data) hits
system.cpu.dtb.misses                               0                       # Total TLB (inst and data) misses
system.cpu.dtb.accesses                             0                       # Total TLB (inst and data) accesses
system.cpu.dtb.stage2_mmu.stage2_tlb.instHits            0                       # ITB inst hits
system.cpu.dtb.stage2_mmu.stage2_tlb.instMisses            0                       # ITB inst misses
system.cpu.dtb.stage2_mmu.stage2_tlb.readHits            0                       # DTB read hits
system.cpu.dtb.stage2_mmu.stage2_tlb.readMisses            0                       # DTB read misses
system.cpu.dtb.stage2_mmu.stage2_tlb.writeHits            0                       # DTB write hits
system.cpu.dtb.stage2_mmu.stage2_tlb.writeMisses            0                       # DTB write misses
system.cpu.dtb.stage2_mmu.stage2_tlb.inserts            0                       # Number of times an entry is inserted into the TLB
system.cpu.dtb.stage2_mmu.stage2_tlb.flushTlb            0                       # Number of times complete TLB was flushed
system.cpu.dtb.stage2_mmu.stage2_tlb.flushTlbMva            0                       # Number of times TLB was flushed by MVA
system.cpu.dtb.stage2_mmu.stage2_tlb.flushTlbMvaAsid            0                       # Number of times TLB was flushed by MVA & ASID
system.cpu.dtb.stage2_mmu.stage2_tlb.flushTlbAsid            0                       # Number of times TLB was flushed by ASID
system.cpu.dtb.stage2_mmu.stage2_tlb.flushedEntries            0                       # Number of entries that have been flushed from TLB
system.cpu.dtb.stage2_mmu.stage2_tlb.alignFaults            0                       # Number of TLB faults due to alignment restrictions
system.cpu.dtb.stage2_mmu.stage2_tlb.prefetchFaults            0                       # Number of TLB faults due to prefetch
system.cpu.dtb.stage2_mmu.stage2_tlb.domainFaults            0                       # Number of TLB faults due to domain restrictions
system.cpu.dtb.stage2_mmu.stage2_tlb.permsFaults            0                       # Number of TLB faults due to permissions restrictions
system.cpu.dtb.stage2_mmu.stage2_tlb.readAccesses            0                       # DTB read accesses
system.cpu.dtb.stage2_mmu.stage2_tlb.writeAccesses            0                       # DTB write accesses
system.cpu.dtb.stage2_mmu.stage2_tlb.instAccesses            0                       # ITB inst accesses
system.cpu.dtb.stage2_mmu.stage2_tlb.hits            0                       # Total TLB (inst and data) hits
system.cpu.dtb.stage2_mmu.stage2_tlb.misses            0                       # Total TLB (inst and data) misses
system.cpu.dtb.stage2_mmu.stage2_tlb.accesses            0                       # Total TLB (inst and data) accesses
system.cpu.dtb.stage2_mmu.stage2_tlb.walker.walks            0                       # Table walker walks requested
system.cpu.dtb.stage2_mmu.stage2_tlb.walker.requestOrigin_Requested::Data            0                       # Table walker requests started/completed, data/inst
system.cpu.dtb.stage2_mmu.stage2_tlb.walker.requestOrigin_Requested::Inst            0                       # Table walker requests started/completed, data/inst
system.cpu.dtb.stage2_mmu.stage2_tlb.walker.requestOrigin_Requested::total            0                       # Table walker requests started/completed, data/inst
system.cpu.dtb.stage2_mmu.stage2_tlb.walker.requestOrigin_Completed::Data            0                       # Table walker requests started/completed, data/inst
system.cpu.dtb.stage2_mmu.stage2_tlb.walker.requestOrigin_Completed::Inst            0                       # Table walker requests started/completed, data/inst
system.cpu.dtb.stage2_mmu.stage2_tlb.walker.requestOrigin_Completed::total            0                       # Table walker requests started/completed, data/inst
system.cpu.dtb.stage2_mmu.stage2_tlb.walker.requestOrigin::total            0                       # Table walker requests started/completed, data/inst
system.cpu.dtb.stage2_mmu.stage2_tlb.walker.power_state.pwrStateResidencyTicks::UNDEFINED 321996278792                       # Cumulative time (in ticks) in various power states
system.cpu.dtb.walker.walks                         0                       # Table walker walks requested
system.cpu.dtb.walker.requestOrigin_Requested::Data            0                       # Table walker requests started/completed, data/inst
system.cpu.dtb.walker.requestOrigin_Requested::Inst            0                       # Table walker requests started/completed, data/inst
system.cpu.dtb.walker.requestOrigin_Requested::total            0                       # Table walker requests started/completed, data/inst
system.cpu.dtb.walker.requestOrigin_Completed::Data            0                       # Table walker requests started/completed, data/inst
system.cpu.dtb.walker.requestOrigin_Completed::Inst            0                       # Table walker requests started/completed, data/inst
system.cpu.dtb.walker.requestOrigin_Completed::total            0                       # Table walker requests started/completed, data/inst
system.cpu.dtb.walker.requestOrigin::total            0                       # Table walker requests started/completed, data/inst
system.cpu.dtb.walker.power_state.pwrStateResidencyTicks::UNDEFINED 321996278792                       # Cumulative time (in ticks) in various power states
system.cpu.icache.demand_hits::.cpu.inst           28                       # number of demand (read+write) hits
system.cpu.icache.demand_hits::.switch_cpus.inst        95286                       # number of demand (read+write) hits
system.cpu.icache.demand_hits::total            95314                       # number of demand (read+write) hits
system.cpu.icache.overall_hits::.cpu.inst           28                       # number of overall hits
system.cpu.icache.overall_hits::.switch_cpus.inst        95286                       # number of overall hits
system.cpu.icache.overall_hits::total           95314                       # number of overall hits
system.cpu.icache.demand_misses::.cpu.inst            2                       # number of demand (read+write) misses
system.cpu.icache.demand_misses::.switch_cpus.inst           22                       # number of demand (read+write) misses
system.cpu.icache.demand_misses::total             24                       # number of demand (read+write) misses
system.cpu.icache.overall_misses::.cpu.inst            2                       # number of overall misses
system.cpu.icache.overall_misses::.switch_cpus.inst           22                       # number of overall misses
system.cpu.icache.overall_misses::total            24                       # number of overall misses
system.cpu.icache.demand_miss_latency::.switch_cpus.inst      1440257                       # number of demand (read+write) miss cycles
system.cpu.icache.demand_miss_latency::total      1440257                       # number of demand (read+write) miss cycles
system.cpu.icache.overall_miss_latency::.switch_cpus.inst      1440257                       # number of overall miss cycles
system.cpu.icache.overall_miss_latency::total      1440257                       # number of overall miss cycles
system.cpu.icache.demand_accesses::.cpu.inst           30                       # number of demand (read+write) accesses
system.cpu.icache.demand_accesses::.switch_cpus.inst        95308                       # number of demand (read+write) accesses
system.cpu.icache.demand_accesses::total        95338                       # number of demand (read+write) accesses
system.cpu.icache.overall_accesses::.cpu.inst           30                       # number of overall (read+write) accesses
system.cpu.icache.overall_accesses::.switch_cpus.inst        95308                       # number of overall (read+write) accesses
system.cpu.icache.overall_accesses::total        95338                       # number of overall (read+write) accesses
system.cpu.icache.demand_miss_rate::.cpu.inst     0.066667                       # miss rate for demand accesses
system.cpu.icache.demand_miss_rate::.switch_cpus.inst     0.000231                       # miss rate for demand accesses
system.cpu.icache.demand_miss_rate::total     0.000252                       # miss rate for demand accesses
system.cpu.icache.overall_miss_rate::.cpu.inst     0.066667                       # miss rate for overall accesses
system.cpu.icache.overall_miss_rate::.switch_cpus.inst     0.000231                       # miss rate for overall accesses
system.cpu.icache.overall_miss_rate::total     0.000252                       # miss rate for overall accesses
system.cpu.icache.demand_avg_miss_latency::.switch_cpus.inst 65466.227273                       # average overall miss latency
system.cpu.icache.demand_avg_miss_latency::total 60010.708333                       # average overall miss latency
system.cpu.icache.overall_avg_miss_latency::.switch_cpus.inst 65466.227273                       # average overall miss latency
system.cpu.icache.overall_avg_miss_latency::total 60010.708333                       # average overall miss latency
system.cpu.icache.blocked_cycles::no_mshrs            0                       # number of cycles access was blocked
system.cpu.icache.blocked_cycles::no_targets            0                       # number of cycles access was blocked
system.cpu.icache.blocked::no_mshrs                 0                       # number of cycles access was blocked
system.cpu.icache.blocked::no_targets               0                       # number of cycles access was blocked
system.cpu.icache.avg_blocked_cycles::no_mshrs          nan                       # average number of cycles each access was blocked
system.cpu.icache.avg_blocked_cycles::no_targets          nan                       # average number of cycles each access was blocked
system.cpu.icache.demand_mshr_hits::.switch_cpus.inst           12                       # number of demand (read+write) MSHR hits
system.cpu.icache.demand_mshr_hits::total           12                       # number of demand (read+write) MSHR hits
system.cpu.icache.overall_mshr_hits::.switch_cpus.inst           12                       # number of overall MSHR hits
system.cpu.icache.overall_mshr_hits::total           12                       # number of overall MSHR hits
system.cpu.icache.demand_mshr_misses::.switch_cpus.inst           10                       # number of demand (read+write) MSHR misses
system.cpu.icache.demand_mshr_misses::total           10                       # number of demand (read+write) MSHR misses
system.cpu.icache.overall_mshr_misses::.switch_cpus.inst           10                       # number of overall MSHR misses
system.cpu.icache.overall_mshr_misses::total           10                       # number of overall MSHR misses
system.cpu.icache.demand_mshr_miss_latency::.switch_cpus.inst       740962                       # number of demand (read+write) MSHR miss cycles
system.cpu.icache.demand_mshr_miss_latency::total       740962                       # number of demand (read+write) MSHR miss cycles
system.cpu.icache.overall_mshr_miss_latency::.switch_cpus.inst       740962                       # number of overall MSHR miss cycles
system.cpu.icache.overall_mshr_miss_latency::total       740962                       # number of overall MSHR miss cycles
system.cpu.icache.demand_mshr_miss_rate::.switch_cpus.inst     0.000105                       # mshr miss rate for demand accesses
system.cpu.icache.demand_mshr_miss_rate::total     0.000105                       # mshr miss rate for demand accesses
system.cpu.icache.overall_mshr_miss_rate::.switch_cpus.inst     0.000105                       # mshr miss rate for overall accesses
system.cpu.icache.overall_mshr_miss_rate::total     0.000105                       # mshr miss rate for overall accesses
system.cpu.icache.demand_avg_mshr_miss_latency::.switch_cpus.inst 74096.200000                       # average overall mshr miss latency
system.cpu.icache.demand_avg_mshr_miss_latency::total 74096.200000                       # average overall mshr miss latency
system.cpu.icache.overall_avg_mshr_miss_latency::.switch_cpus.inst 74096.200000                       # average overall mshr miss latency
system.cpu.icache.overall_avg_mshr_miss_latency::total 74096.200000                       # average overall mshr miss latency
system.cpu.icache.replacements                      0                       # number of replacements
system.cpu.icache.ReadReq_hits::.cpu.inst           28                       # number of ReadReq hits
system.cpu.icache.ReadReq_hits::.switch_cpus.inst        95286                       # number of ReadReq hits
system.cpu.icache.ReadReq_hits::total           95314                       # number of ReadReq hits
system.cpu.icache.ReadReq_misses::.cpu.inst            2                       # number of ReadReq misses
system.cpu.icache.ReadReq_misses::.switch_cpus.inst           22                       # number of ReadReq misses
system.cpu.icache.ReadReq_misses::total            24                       # number of ReadReq misses
system.cpu.icache.ReadReq_miss_latency::.switch_cpus.inst      1440257                       # number of ReadReq miss cycles
system.cpu.icache.ReadReq_miss_latency::total      1440257                       # number of ReadReq miss cycles
system.cpu.icache.ReadReq_accesses::.cpu.inst           30                       # number of ReadReq accesses(hits+misses)
system.cpu.icache.ReadReq_accesses::.switch_cpus.inst        95308                       # number of ReadReq accesses(hits+misses)
system.cpu.icache.ReadReq_accesses::total        95338                       # number of ReadReq accesses(hits+misses)
system.cpu.icache.ReadReq_miss_rate::.cpu.inst     0.066667                       # miss rate for ReadReq accesses
system.cpu.icache.ReadReq_miss_rate::.switch_cpus.inst     0.000231                       # miss rate for ReadReq accesses
system.cpu.icache.ReadReq_miss_rate::total     0.000252                       # miss rate for ReadReq accesses
system.cpu.icache.ReadReq_avg_miss_latency::.switch_cpus.inst 65466.227273                       # average ReadReq miss latency
system.cpu.icache.ReadReq_avg_miss_latency::total 60010.708333                       # average ReadReq miss latency
system.cpu.icache.ReadReq_mshr_hits::.switch_cpus.inst           12                       # number of ReadReq MSHR hits
system.cpu.icache.ReadReq_mshr_hits::total           12                       # number of ReadReq MSHR hits
system.cpu.icache.ReadReq_mshr_misses::.switch_cpus.inst           10                       # number of ReadReq MSHR misses
system.cpu.icache.ReadReq_mshr_misses::total           10                       # number of ReadReq MSHR misses
system.cpu.icache.ReadReq_mshr_miss_latency::.switch_cpus.inst       740962                       # number of ReadReq MSHR miss cycles
system.cpu.icache.ReadReq_mshr_miss_latency::total       740962                       # number of ReadReq MSHR miss cycles
system.cpu.icache.ReadReq_mshr_miss_rate::.switch_cpus.inst     0.000105                       # mshr miss rate for ReadReq accesses
system.cpu.icache.ReadReq_mshr_miss_rate::total     0.000105                       # mshr miss rate for ReadReq accesses
system.cpu.icache.ReadReq_avg_mshr_miss_latency::.switch_cpus.inst 74096.200000                       # average ReadReq mshr miss latency
system.cpu.icache.ReadReq_avg_mshr_miss_latency::total 74096.200000                       # average ReadReq mshr miss latency
system.cpu.icache.power_state.pwrStateResidencyTicks::UNDEFINED 321996278792                       # Cumulative time (in ticks) in various power states
system.cpu.icache.tags.tagsinuse            11.976958                       # Cycle average of tags in use
system.cpu.icache.tags.total_refs                   0                       # Total number of references to valid blocks.
system.cpu.icache.tags.sampled_refs                 0                       # Sample count of references to valid blocks.
system.cpu.icache.tags.avg_refs                   nan                       # Average number of references to valid blocks.
system.cpu.icache.tags.warmup_cycle      321781852981                       # Cycle when the warmup percentage was hit.
system.cpu.icache.tags.occ_blocks::.cpu.inst     1.999961                       # Average occupied blocks per requestor
system.cpu.icache.tags.occ_blocks::.switch_cpus.inst     9.976997                       # Average occupied blocks per requestor
system.cpu.icache.tags.occ_percent::.cpu.inst     0.003906                       # Average percentage of cache occupancy
system.cpu.icache.tags.occ_percent::.switch_cpus.inst     0.019486                       # Average percentage of cache occupancy
system.cpu.icache.tags.occ_percent::total     0.023392                       # Average percentage of cache occupancy
system.cpu.icache.tags.occ_task_id_blocks::1024           12                       # Occupied blocks per task id
system.cpu.icache.tags.age_task_id_blocks_1024::2           12                       # Occupied blocks per task id
system.cpu.icache.tags.occ_task_id_percent::1024     0.023438                       # Percentage of cache occupancy per task id
system.cpu.icache.tags.tag_accesses            762716                       # Number of tag accesses
system.cpu.icache.tags.data_accesses           762716                       # Number of data accesses
system.cpu.icache.tags.power_state.pwrStateResidencyTicks::UNDEFINED 321996278792                       # Cumulative time (in ticks) in various power states
system.cpu.itb.instHits                             0                       # ITB inst hits
system.cpu.itb.instMisses                           0                       # ITB inst misses
system.cpu.itb.readHits                             0                       # DTB read hits
system.cpu.itb.readMisses                           0                       # DTB read misses
system.cpu.itb.writeHits                            0                       # DTB write hits
system.cpu.itb.writeMisses                          0                       # DTB write misses
system.cpu.itb.inserts                              0                       # Number of times an entry is inserted into the TLB
system.cpu.itb.flushTlb                             2                       # Number of times complete TLB was flushed
system.cpu.itb.flushTlbMva                          0                       # Number of times TLB was flushed by MVA
system.cpu.itb.flushTlbMvaAsid                      0                       # Number of times TLB was flushed by MVA & ASID
system.cpu.itb.flushTlbAsid                         0                       # Number of times TLB was flushed by ASID
system.cpu.itb.flushedEntries                       0                       # Number of entries that have been flushed from TLB
system.cpu.itb.alignFaults                          0                       # Number of TLB faults due to alignment restrictions
system.cpu.itb.prefetchFaults                       0                       # Number of TLB faults due to prefetch
system.cpu.itb.domainFaults                         0                       # Number of TLB faults due to domain restrictions
system.cpu.itb.permsFaults                          0                       # Number of TLB faults due to permissions restrictions
system.cpu.itb.readAccesses                         0                       # DTB read accesses
system.cpu.itb.writeAccesses                        0                       # DTB write accesses
system.cpu.itb.instAccesses                         0                       # ITB inst accesses
system.cpu.itb.hits                                 0                       # Total TLB (inst and data) hits
system.cpu.itb.misses                               0                       # Total TLB (inst and data) misses
system.cpu.itb.accesses                             0                       # Total TLB (inst and data) accesses
system.cpu.itb.stage2_mmu.stage2_tlb.instHits            0                       # ITB inst hits
system.cpu.itb.stage2_mmu.stage2_tlb.instMisses            0                       # ITB inst misses
system.cpu.itb.stage2_mmu.stage2_tlb.readHits            0                       # DTB read hits
system.cpu.itb.stage2_mmu.stage2_tlb.readMisses            0                       # DTB read misses
system.cpu.itb.stage2_mmu.stage2_tlb.writeHits            0                       # DTB write hits
system.cpu.itb.stage2_mmu.stage2_tlb.writeMisses            0                       # DTB write misses
system.cpu.itb.stage2_mmu.stage2_tlb.inserts            0                       # Number of times an entry is inserted into the TLB
system.cpu.itb.stage2_mmu.stage2_tlb.flushTlb            0                       # Number of times complete TLB was flushed
system.cpu.itb.stage2_mmu.stage2_tlb.flushTlbMva            0                       # Number of times TLB was flushed by MVA
system.cpu.itb.stage2_mmu.stage2_tlb.flushTlbMvaAsid            0                       # Number of times TLB was flushed by MVA & ASID
system.cpu.itb.stage2_mmu.stage2_tlb.flushTlbAsid            0                       # Number of times TLB was flushed by ASID
system.cpu.itb.stage2_mmu.stage2_tlb.flushedEntries            0                       # Number of entries that have been flushed from TLB
system.cpu.itb.stage2_mmu.stage2_tlb.alignFaults            0                       # Number of TLB faults due to alignment restrictions
system.cpu.itb.stage2_mmu.stage2_tlb.prefetchFaults            0                       # Number of TLB faults due to prefetch
system.cpu.itb.stage2_mmu.stage2_tlb.domainFaults            0                       # Number of TLB faults due to domain restrictions
system.cpu.itb.stage2_mmu.stage2_tlb.permsFaults            0                       # Number of TLB faults due to permissions restrictions
system.cpu.itb.stage2_mmu.stage2_tlb.readAccesses            0                       # DTB read accesses
system.cpu.itb.stage2_mmu.stage2_tlb.writeAccesses            0                       # DTB write accesses
system.cpu.itb.stage2_mmu.stage2_tlb.instAccesses            0                       # ITB inst accesses
system.cpu.itb.stage2_mmu.stage2_tlb.hits            0                       # Total TLB (inst and data) hits
system.cpu.itb.stage2_mmu.stage2_tlb.misses            0                       # Total TLB (inst and data) misses
system.cpu.itb.stage2_mmu.stage2_tlb.accesses            0                       # Total TLB (inst and data) accesses
system.cpu.itb.stage2_mmu.stage2_tlb.walker.walks            0                       # Table walker walks requested
system.cpu.itb.stage2_mmu.stage2_tlb.walker.requestOrigin_Requested::Data            0                       # Table walker requests started/completed, data/inst
system.cpu.itb.stage2_mmu.stage2_tlb.walker.requestOrigin_Requested::Inst            0                       # Table walker requests started/completed, data/inst
system.cpu.itb.stage2_mmu.stage2_tlb.walker.requestOrigin_Requested::total            0                       # Table walker requests started/completed, data/inst
system.cpu.itb.stage2_mmu.stage2_tlb.walker.requestOrigin_Completed::Data            0                       # Table walker requests started/completed, data/inst
system.cpu.itb.stage2_mmu.stage2_tlb.walker.requestOrigin_Completed::Inst            0                       # Table walker requests started/completed, data/inst
system.cpu.itb.stage2_mmu.stage2_tlb.walker.requestOrigin_Completed::total            0                       # Table walker requests started/completed, data/inst
system.cpu.itb.stage2_mmu.stage2_tlb.walker.requestOrigin::total            0                       # Table walker requests started/completed, data/inst
system.cpu.itb.stage2_mmu.stage2_tlb.walker.power_state.pwrStateResidencyTicks::UNDEFINED 321996278792                       # Cumulative time (in ticks) in various power states
system.cpu.itb.walker.walks                         0                       # Table walker walks requested
system.cpu.itb.walker.requestOrigin_Requested::Data            0                       # Table walker requests started/completed, data/inst
system.cpu.itb.walker.requestOrigin_Requested::Inst            0                       # Table walker requests started/completed, data/inst
system.cpu.itb.walker.requestOrigin_Requested::total            0                       # Table walker requests started/completed, data/inst
system.cpu.itb.walker.requestOrigin_Completed::Data            0                       # Table walker requests started/completed, data/inst
system.cpu.itb.walker.requestOrigin_Completed::Inst            0                       # Table walker requests started/completed, data/inst
system.cpu.itb.walker.requestOrigin_Completed::total            0                       # Table walker requests started/completed, data/inst
system.cpu.itb.walker.requestOrigin::total            0                       # Table walker requests started/completed, data/inst
system.cpu.itb.walker.power_state.pwrStateResidencyTicks::UNDEFINED 321996278792                       # Cumulative time (in ticks) in various power states
system.cpu.power_state.numTransitions               1                       # Number of power state transitions
system.cpu.power_state.pwrStateResidencyTicks::ON 321781862400                       # Cumulative time (in ticks) in various power states
system.cpu.power_state.pwrStateResidencyTicks::OFF    214416392                       # Cumulative time (in ticks) in various power states
system.cpu.thread_0.numInsts                        0                       # Number of Instructions committed
system.cpu.thread_0.numOps                          0                       # Number of Ops committed
system.cpu.thread_0.numMemRefs                      0                       # Number of Memory References
system.cpu_clk_domain.clock                       323                       # Clock period in ticks
system.cpu_voltage_domain.voltage                   1                       # Voltage in Volts
system.l2.demand_hits::.switch_cpus.data        18287                       # number of demand (read+write) hits
system.l2.demand_hits::total                    18287                       # number of demand (read+write) hits
system.l2.overall_hits::.switch_cpus.data        18287                       # number of overall hits
system.l2.overall_hits::total                   18287                       # number of overall hits
system.l2.demand_misses::.cpu.inst                  2                       # number of demand (read+write) misses
system.l2.demand_misses::.cpu.data                  4                       # number of demand (read+write) misses
system.l2.demand_misses::.switch_cpus.inst           10                       # number of demand (read+write) misses
system.l2.demand_misses::.switch_cpus.data         1814                       # number of demand (read+write) misses
system.l2.demand_misses::total                   1830                       # number of demand (read+write) misses
system.l2.overall_misses::.cpu.inst                 2                       # number of overall misses
system.l2.overall_misses::.cpu.data                 4                       # number of overall misses
system.l2.overall_misses::.switch_cpus.inst           10                       # number of overall misses
system.l2.overall_misses::.switch_cpus.data         1814                       # number of overall misses
[...]
system.switch_cpus.fetch.icacheStallCycles      1066113                       # Number of cycles fetch is stalled on an Icache miss
system.switch_cpus.fetch.insts               10873549                       # Number of instructions fetch has processed
system.switch_cpus.fetch.branches             1610101                       # Number of branches that fetch encountered
system.switch_cpus.fetch.predictedBranches       902406                       # Number of branches that fetch has predicted taken
system.switch_cpus.fetch.cycles               4767188                       # Number of cycles fetch has run and was not squashing or blocked
system.switch_cpus.fetch.squashCycles           25684                       # Number of cycles fetch has spent squashing
system.switch_cpus.fetch.miscStallCycles          206                       # Number of cycles fetch has spent waiting on interrupts,or bad addresses, or out of MSHRs
system.switch_cpus.fetch.pendingTrapStallCycles           14                       # Number of stall cycles due to pending traps
system.switch_cpus.fetch.icacheWaitRetryStallCycles            1                       # Number of stall cycles due to full MSHR
system.switch_cpus.fetch.cacheLines           1058372                       # Number of cache lines fetched
system.switch_cpus.fetch.icacheSquashes          3688                       # Number of outstanding Icache misses that were squashed
system.switch_cpus.fetch.nisnDist::samples      5846364                       # Number of instructions fetched each cycle (Total)
system.switch_cpus.fetch.nisnDist::mean      1.859963                       # Number of instructions fetched each cycle (Total)
system.switch_cpus.fetch.nisnDist::stdev     2.848457                       # Number of instructions fetched each cycle (Total)
system.switch_cpus.fetch.nisnDist::underflows            0      0.00%      0.00% # Number of instructions fetched each cycle (Total)
system.switch_cpus.fetch.nisnDist::0          3728441     63.77%     63.77% # Number of instructions fetched each cycle (Total)
system.switch_cpus.fetch.nisnDist::1           189982      3.25%     67.02% # Number of instructions fetched each cycle (Total)
system.switch_cpus.fetch.nisnDist::2           135484      2.32%     69.34% # Number of instructions fetched each cycle (Total)
system.switch_cpus.fetch.nisnDist::3           254485      4.35%     73.69% # Number of instructions fetched each cycle (Total)
system.switch_cpus.fetch.nisnDist::4           404711      6.92%     80.62% # Number of instructions fetched each cycle (Total)
system.switch_cpus.fetch.nisnDist::5           105517      1.80%     82.42% # Number of instructions fetched each cycle (Total)
system.switch_cpus.fetch.nisnDist::6           265609      4.54%     86.96% # Number of instructions fetched each cycle (Total)
system.switch_cpus.fetch.nisnDist::7           187545      3.21%     90.17% # Number of instructions fetched each cycle (Total)
system.switch_cpus.fetch.nisnDist::8           574590      9.83%    100.00% # Number of instructions fetched each cycle (Total)
system.switch_cpus.fetch.nisnDist::overflows            0      0.00%    100.00% # Number of instructions fetched each cycle (Total)
system.switch_cpus.fetch.nisnDist::min_value            0                       # Number of instructions fetched each cycle (Total)
system.switch_cpus.fetch.nisnDist::max_value            8                       # Number of instructions fetched each cycle (Total)
system.switch_cpus.fetch.nisnDist::total      5846364                       # Number of instructions fetched each cycle (Total)
system.switch_cpus.fetch.branchRate          0.274936                       # Number of branch fetches per cycle
system.switch_cpus.fetch.rate                1.856737                       # Number of inst fetches per cycle
system.switch_cpus.itb.instHits                     0                       # ITB inst hits
system.switch_cpus.itb.instMisses                   0                       # ITB inst misses
system.switch_cpus.itb.readHits                     0                       # DTB read hits
system.switch_cpus.itb.readMisses                   0                       # DTB read misses
system.switch_cpus.itb.writeHits                    0                       # DTB write hits
system.switch_cpus.itb.writeMisses                  0                       # DTB write misses
system.switch_cpus.itb.inserts                      0                       # Number of times an entry is inserted into the TLB
system.switch_cpus.itb.flushTlb                     0                       # Number of times complete TLB was flushed
system.switch_cpus.itb.flushTlbMva                  0                       # Number of times TLB was flushed by MVA
system.switch_cpus.itb.flushTlbMvaAsid              0                       # Number of times TLB was flushed by MVA & ASID
system.switch_cpus.itb.flushTlbAsid                 0                       # Number of times TLB was flushed by ASID
system.switch_cpus.itb.flushedEntries               0                       # Number of entries that have been flushed from TLB
system.switch_cpus.itb.alignFaults                  0                       # Number of TLB faults due to alignment restrictions
system.switch_cpus.itb.prefetchFaults               0                       # Number of TLB faults due to prefetch
system.switch_cpus.itb.domainFaults                 0                       # Number of TLB faults due to domain restrictions
system.switch_cpus.itb.permsFaults                  0                       # Number of TLB faults due to permissions restrictions
system.switch_cpus.itb.readAccesses                 0                       # DTB read accesses
system.switch_cpus.itb.writeAccesses                0                       # DTB write accesses
system.switch_cpus.itb.instAccesses                 0                       # ITB inst accesses
system.switch_cpus.itb.hits                         0                       # Total TLB (inst and data) hits
system.switch_cpus.itb.misses                       0                       # Total TLB (inst and data) misses
system.switch_cpus.itb.accesses                     0                       # Total TLB (inst and data) accesses
system.switch_cpus.itb.stage2_mmu.stage2_tlb.instHits            0                       # ITB inst hits
system.switch_cpus.itb.stage2_mmu.stage2_tlb.instMisses            0                       # ITB inst misses
system.switch_cpus.itb.stage2_mmu.stage2_tlb.readHits            0                       # DTB read hits
system.switch_cpus.itb.stage2_mmu.stage2_tlb.readMisses            0                       # DTB read misses
system.switch_cpus.itb.stage2_mmu.stage2_tlb.writeHits            0                       # DTB write hits
system.switch_cpus.itb.stage2_mmu.stage2_tlb.writeMisses            0                       # DTB write misses
system.switch_cpus.itb.stage2_mmu.stage2_tlb.inserts            0                       # Number of times an entry is inserted into the TLB
system.switch_cpus.itb.stage2_mmu.stage2_tlb.flushTlb            0                       # Number of times complete TLB was flushed
system.switch_cpus.itb.stage2_mmu.stage2_tlb.flushTlbMva            0                       # Number of times TLB was flushed by MVA
system.switch_cpus.itb.stage2_mmu.stage2_tlb.flushTlbMvaAsid            0                       # Number of times TLB was flushed by MVA & ASID
system.switch_cpus.itb.stage2_mmu.stage2_tlb.flushTlbAsid            0                       # Number of times TLB was flushed by ASID
system.switch_cpus.itb.stage2_mmu.stage2_tlb.flushedEntries            0                       # Number of entries that have been flushed from TLB
system.switch_cpus.itb.stage2_mmu.stage2_tlb.alignFaults            0                       # Number of TLB faults due to alignment restrictions
system.switch_cpus.itb.stage2_mmu.stage2_tlb.prefetchFaults            0                       # Number of TLB faults due to prefetch
system.switch_cpus.itb.stage2_mmu.stage2_tlb.domainFaults            0                       # Number of TLB faults due to domain restrictions
system.switch_cpus.itb.stage2_mmu.stage2_tlb.permsFaults            0                       # Number of TLB faults due to permissions restrictions
system.switch_cpus.itb.stage2_mmu.stage2_tlb.readAccesses            0                       # DTB read accesses
system.switch_cpus.itb.stage2_mmu.stage2_tlb.writeAccesses            0                       # DTB write accesses
system.switch_cpus.itb.stage2_mmu.stage2_tlb.instAccesses            0                       # ITB inst accesses
system.switch_cpus.itb.stage2_mmu.stage2_tlb.hits            0                       # Total TLB (inst and data) hits
system.switch_cpus.itb.stage2_mmu.stage2_tlb.misses            0                       # Total TLB (inst and data) misses
system.switch_cpus.itb.stage2_mmu.stage2_tlb.accesses            0                       # Total TLB (inst and data) accesses
system.switch_cpus.itb.stage2_mmu.stage2_tlb.walker.walks            0                       # Table walker walks requested
system.switch_cpus.itb.stage2_mmu.stage2_tlb.walker.requestOrigin_Requested::Data            0                       # Table walker requests started/completed, data/inst
system.switch_cpus.itb.stage2_mmu.stage2_tlb.walker.requestOrigin_Requested::Inst            0                       # Table walker requests started/completed, data/inst
system.switch_cpus.itb.stage2_mmu.stage2_tlb.walker.requestOrigin_Requested::total            0                       # Table walker requests started/completed, data/inst
system.switch_cpus.itb.stage2_mmu.stage2_tlb.walker.requestOrigin_Completed::Data            0                       # Table walker requests started/completed, data/inst
system.switch_cpus.itb.stage2_mmu.stage2_tlb.walker.requestOrigin_Completed::Inst            0                       # Table walker requests started/completed, data/inst
system.switch_cpus.itb.stage2_mmu.stage2_tlb.walker.requestOrigin_Completed::total            0                       # Table walker requests started/completed, data/inst
system.switch_cpus.itb.stage2_mmu.stage2_tlb.walker.requestOrigin::total            0                       # Table walker requests started/completed, data/inst
system.switch_cpus.itb.stage2_mmu.stage2_tlb.walker.power_state.pwrStateResidencyTicks::UNDEFINED   1891574241                       # Cumulative time (in ticks) in various power states
system.switch_cpus.itb.walker.walks                 0                       # Table walker walks requested
system.switch_cpus.itb.walker.requestOrigin_Requested::Data            0                       # Table walker requests started/completed, data/inst
system.switch_cpus.itb.walker.requestOrigin_Requested::Inst            0                       # Table walker requests started/completed, data/inst
system.switch_cpus.itb.walker.requestOrigin_Requested::total            0                       # Table walker requests started/completed, data/inst
system.switch_cpus.itb.walker.requestOrigin_Completed::Data            0                       # Table walker requests started/completed, data/inst
system.switch_cpus.itb.walker.requestOrigin_Completed::Inst            0                       # Table walker requests started/completed, data/inst
system.switch_cpus.itb.walker.requestOrigin_Completed::total            0                       # Table walker requests started/completed, data/inst
system.switch_cpus.itb.walker.requestOrigin::total            0                       # Table walker requests started/completed, data/inst
system.switch_cpus.itb.walker.power_state.pwrStateResidencyTicks::UNDEFINED   1891574241                       # Cumulative time (in ticks) in various power states
system.switch_cpus.lsq0.forwLoads             1389453                       # Number of loads that had data forwarded from stores
system.switch_cpus.lsq0.squashedLoads          206550                       # Number of loads squashed
system.switch_cpus.lsq0.ignoredResponses         1453                       # Number of memory responses ignored because the instruction is squashed
system.switch_cpus.lsq0.memOrderViolation           92                       # Number of memory ordering violations
system.switch_cpus.lsq0.squashedStores          43057                       # Number of stores squashed
system.switch_cpus.lsq0.rescheduledLoads            1                       # Number of loads that were rescheduled
system.switch_cpus.lsq0.blockedByCache            382                       # Number of times an access to memory failed due to the cache being blocked
system.switch_cpus.power_state.pwrStateResidencyTicks::OFF   1891574241                       # Cumulative time (in ticks) in various power states
system.switch_cpus.rename.squashCycles          12798                       # Number of cycles rename is squashing
system.switch_cpus.rename.idleCycles           596994                       # Number of cycles rename is idle
system.switch_cpus.rename.blockCycles          573936                       # Number of cycles rename is blocking
system.switch_cpus.rename.serializeStallCycles          745                       # count of cycles rename stalledfor serializing inst
system.switch_cpus.rename.runCycles           1427440                       # Number of cycles rename is running
system.switch_cpus.rename.unblockCycles       3234451                       # Number of cycles rename is unblocking
system.switch_cpus.rename.renamedInsts       10536278                       # Number of instructions processed by rename
system.switch_cpus.rename.ROBFullEvents             6                       # Number of times rename has blocked due to ROB full
system.switch_cpus.rename.IQFullEvents          47541                       # Number of times rename has blocked due to IQ full
system.switch_cpus.rename.LQFullEvents        3181650                       # Number of times rename has blocked due to LQ full
system.switch_cpus.rename.SQFullEvents           1068                       # Number of times rename has blocked due to SQ full
system.switch_cpus.rename.renamedOperands     13103204                       # Number of destination operands rename has renamed
system.switch_cpus.rename.lookups            15671142                       # Number of register rename lookups that rename has made
system.switch_cpus.rename.intLookups         10971226                       # Number of integer rename lookups
system.switch_cpus.rename.vecLookups               12                       # Number of vector rename lookups
system.switch_cpus.rename.committedMaps      12500300                       # Number of HB maps that are committed
system.switch_cpus.rename.undoneMaps           602903                       # Number of HB maps that are undone due to squashing
system.switch_cpus.rename.serializing              24                       # count of serializing insts renamed
system.switch_cpus.rename.tempSerializing            4                       # count of temporary serializing insts renamed
system.switch_cpus.rename.skidInsts           1667765                       # count of insts added to the skid buffer
system.switch_cpus.rob.reads                 15392878                       # The number of ROB reads
system.switch_cpus.rob.writes                21044165                       # The number of ROB writes
system.switch_cpus.thread_0.numInsts         10000001                       # Number of Instructions committed
system.switch_cpus.thread_0.numOps           10000191                       # Number of Ops committed
system.switch_cpus.thread_0.numMemRefs              0                       # Number of Memory References
system.tol2bus.trans_dist::ReadResp            191884                       # Transaction distribution
system.tol2bus.trans_dist::WritebackDirty        24258                       # Transaction distribution
system.tol2bus.trans_dist::CleanEvict          178122                       # Transaction distribution
system.tol2bus.trans_dist::HardPFReq             8901                       # Transaction distribution
system.tol2bus.trans_dist::ReadExReq             5045                       # Transaction distribution
system.tol2bus.trans_dist::ReadExResp            5045                       # Transaction distribution
system.tol2bus.trans_dist::ReadCleanReq            67                       # Transaction distribution
system.tol2bus.trans_dist::ReadSharedReq       191817                       # Transaction distribution
system.tol2bus.pkt_count_system.cpu.icache.mem_side_port::system.l2.cpu_side_port          134                       # Packet count per connected requestor and responder (bytes)
system.tol2bus.pkt_count_system.cpu.dcache.mem_side_port::system.l2.cpu_side_port       590586                       # Packet count per connected requestor and responder (bytes)
system.tol2bus.pkt_count::total                590720                       # Packet count per connected requestor and responder (bytes)
system.tol2bus.pkt_size_system.cpu.icache.mem_side_port::system.l2.cpu_side_port         8576                       # Cumulative packet size per connected requestor and responder (bytes)
system.tol2bus.pkt_size_system.cpu.dcache.mem_side_port::system.l2.cpu_side_port     28303360                       # Cumulative packet size per connected requestor and responder (bytes)
system.tol2bus.pkt_size::total               28311936                       # Cumulative packet size per connected requestor and responder (bytes)
system.tol2bus.snoops                           14419                       # Total snoops (count)
system.tol2bus.snoopTraffic                         0                       # Total snoop traffic (bytes)
system.tol2bus.snoop_fanout::samples           211348                       # Request fanout histogram
system.tol2bus.snoop_fanout::mean            0.000066                       # Request fanout histogram
system.tol2bus.snoop_fanout::stdev           0.008139                       # Request fanout histogram
system.tol2bus.snoop_fanout::underflows             0      0.00%      0.00% # Request fanout histogram
system.tol2bus.snoop_fanout::0                 211334     99.99%     99.99% # Request fanout histogram
system.tol2bus.snoop_fanout::1                     14      0.01%    100.00% # Request fanout histogram
system.tol2bus.snoop_fanout::2                      0      0.00%    100.00% # Request fanout histogram
system.tol2bus.snoop_fanout::overflows              0      0.00%    100.00% # Request fanout histogram
system.tol2bus.snoop_fanout::min_value              0                       # Request fanout histogram
system.tol2bus.snoop_fanout::max_value              1                       # Request fanout histogram
system.tol2bus.snoop_fanout::total             211348                       # Request fanout histogram
system.tol2bus.power_state.pwrStateResidencyTicks::UNDEFINED   1891574241                       # Cumulative time (in ticks) in various power states
system.tol2bus.reqLayer0.occupancy          158535829                       # Layer occupancy (ticks)
system.tol2bus.reqLayer0.utilization              8.4                       # Layer utilization (%)
system.tol2bus.respLayer0.occupancy            108527                       # Layer occupancy (ticks)
system.tol2bus.respLayer0.utilization             0.0                       # Layer utilization (%)
system.tol2bus.respLayer1.occupancy         317932130                       # Layer occupancy (ticks)
system.tol2bus.respLayer1.utilization            16.8                       # Layer utilization (%)
system.voltage_domain.voltage                       1                       # Voltage in Volts

---------- End Simulation Statistics   ----------
