
---------- Begin Simulation Statistics ----------
final_tick                               264114986800                       # Number of ticks from beginning of simulation (restored from checkpoints and never reset)
host_inst_rate                                 192566                       # Simulator instruction rate (inst/s)
host_mem_usage                               16976268                       # Number of bytes of host memory used
host_op_rate                                   220265                       # Simulator op (including micro ops) rate (op/s)
host_seconds                                    51.93                       # Real time elapsed on the host
host_tick_rate                               82099892                       # Simulator tick rate (ticks/s)
sim_freq                                 1000000000000                       # Frequency of simulated ticks
sim_insts                                    10000023                       # Number of instructions simulated
sim_ops                                      11438476                       # Number of ops (including micro ops) simulated
sim_seconds                                  0.004263                       # Number of seconds simulated
sim_ticks                                  4263488400                       # Number of ticks simulated
system.cpu.Branches                                 6                       # Number of branches fetched
system.cpu.committedInsts                          23                       # Number of instructions committed
system.cpu.committedOps                            25                       # Number of ops (including micro ops) committed
system.cpu.idle_fraction                            0                       # Percentage of idle cycles
system.cpu.not_idle_fraction                        1                       # Percentage of non-idle cycles
system.cpu.numCycles                               25                       # number of cpu cycles simulated
system.cpu.numWorkItemsCompleted                    0                       # number of work items this cpu completed
system.cpu.numWorkItemsStarted                      0                       # number of work items this cpu started
system.cpu.num_busy_cycles                         25                       # Number of busy cycles
system.cpu.num_cc_register_reads                   12                       # number of times the CC registers were read
system.cpu.num_cc_register_writes                  12                       # number of times the CC registers were written
system.cpu.num_conditional_control_insts            3                       # number of instructions that are conditional controls
system.cpu.num_fp_alu_accesses                      0                       # Number of float alu accesses
system.cpu.num_fp_insts                             0                       # number of float instructions
system.cpu.num_fp_register_reads                    0                       # number of times the floating registers were read
system.cpu.num_fp_register_writes                   0                       # number of times the floating registers were written
system.cpu.num_func_calls                           2                       # number of times a function call or return occured
system.cpu.num_idle_cycles                          0                       # Number of idle cycles
system.cpu.num_int_alu_accesses                    21                       # Number of integer alu accesses
system.cpu.num_int_insts                           21                       # number of integer instructions
system.cpu.num_int_register_reads                  26                       # number of times the integer registers were read
system.cpu.num_int_register_writes                 17                       # number of times the integer registers were written
system.cpu.num_load_insts                           5                       # Number of load instructions
system.cpu.num_mem_refs                             7                       # number of memory refs
system.cpu.num_store_insts                          2                       # Number of store instructions
system.cpu.num_vec_alu_accesses                     0                       # Number of vector alu accesses
system.cpu.num_vec_insts                            0                       # number of vector instructions
system.cpu.num_vec_register_reads                   0                       # number of times the vector registers were read
system.cpu.num_vec_register_writes                  0                       # number of times the vector registers were written
system.cpu.op_class::No_OpClass                     0      0.00%      0.00% # Class of executed instruction
system.cpu.op_class::IntAlu                        18     72.00%     72.00% # Class of executed instruction
system.cpu.op_class::IntMult                        0      0.00%     72.00% # Class of executed instruction
system.cpu.op_class::IntDiv                         0      0.00%     72.00% # Class of executed instruction
system.cpu.op_class::FloatAdd                       0      0.00%     72.00% # Class of executed instruction
system.cpu.op_class::FloatCmp                       0      0.00%     72.00% # Class of executed instruction
system.cpu.op_class::FloatCvt                       0      0.00%     72.00% # Class of executed instruction
system.cpu.op_class::FloatMult                      0      0.00%     72.00% # Class of executed instruction
system.cpu.op_class::FloatMultAcc                   0      0.00%     72.00% # Class of executed instruction
system.cpu.op_class::FloatDiv                       0      0.00%     72.00% # Class of executed instruction
system.cpu.op_class::FloatMisc                      0      0.00%     72.00% # Class of executed instruction
system.cpu.op_class::FloatSqrt                      0      0.00%     72.00% # Class of executed instruction
system.cpu.op_class::SimdAdd                        0      0.00%     72.00% # Class of executed instruction
system.cpu.op_class::SimdAddAcc                     0      0.00%     72.00% # Class of executed instruction
system.cpu.op_class::SimdAlu                        0      0.00%     72.00% # Class of executed instruction
system.cpu.op_class::SimdCmp                        0      0.00%     72.00% # Class of executed instruction
system.cpu.op_class::SimdCvt                        0      0.00%     72.00% # Class of executed instruction
system.cpu.op_class::SimdMisc                       0      0.00%     72.00% # Class of executed instruction
system.cpu.op_class::SimdMult                       0      0.00%     72.00% # Class of executed instruction
system.cpu.op_class::SimdMultAcc                    0      0.00%     72.00% # Class of executed instruction
system.cpu.op_class::SimdShift                      0      0.00%     72.00% # Class of executed instruction
system.cpu.op_class::SimdShiftAcc                   0      0.00%     72.00% # Class of executed instruction
system.cpu.op_class::SimdDiv                        0      0.00%     72.00% # Class of executed instruction
system.cpu.op_class::SimdSqrt                       0      0.00%     72.00% # Class of executed instruction
system.cpu.op_class::SimdFloatAdd                   0      0.00%     72.00% # Class of executed instruction
system.cpu.op_class::SimdFloatAlu                   0      0.00%     72.00% # Class of executed instruction
system.cpu.op_class::SimdFloatCmp                   0      0.00%     72.00% # Class of executed instruction
system.cpu.op_class::SimdFloatCvt                   0      0.00%     72.00% # Class of executed instruction
system.cpu.op_class::SimdFloatDiv                   0      0.00%     72.00% # Class of executed instruction
system.cpu.op_class::SimdFloatMisc                  0      0.00%     72.00% # Class of executed instruction
system.cpu.op_class::SimdFloatMult                  0      0.00%     72.00% # Class of executed instruction
system.cpu.op_class::SimdFloatMultAcc               0      0.00%     72.00% # Class of executed instruction
system.cpu.op_class::SimdFloatSqrt                  0      0.00%     72.00% # Class of executed instruction
system.cpu.op_class::SimdReduceAdd                  0      0.00%     72.00% # Class of executed instruction
system.cpu.op_class::SimdReduceAlu                  0      0.00%     72.00% # Class of executed instruction
system.cpu.op_class::SimdReduceCmp                  0      0.00%     72.00% # Class of executed instruction
system.cpu.op_class::SimdFloatReduceAdd             0      0.00%     72.00% # Class of executed instruction
system.cpu.op_class::SimdFloatReduceCmp             0      0.00%     72.00% # Class of executed instruction
system.cpu.op_class::SimdAes                        0      0.00%     72.00% # Class of executed instruction
system.cpu.op_class::SimdAesMix                     0      0.00%     72.00% # Class of executed instruction
system.cpu.op_class::SimdSha1Hash                   0      0.00%     72.00% # Class of executed instruction
system.cpu.op_class::SimdSha1Hash2                  0      0.00%     72.00% # Class of executed instruction
system.cpu.op_class::SimdSha256Hash                 0      0.00%     72.00% # Class of executed instruction
system.cpu.op_class::SimdSha256Hash2                0      0.00%     72.00% # Class of executed instruction
system.cpu.op_class::SimdShaSigma2                  0      0.00%     72.00% # Class of executed instruction
system.cpu.op_class::SimdShaSigma3                  0      0.00%     72.00% # Class of executed instruction
system.cpu.op_class::SimdPredAlu                    0      0.00%     72.00% # Class of executed instruction
system.cpu.op_class::MemRead                        5     20.00%     92.00% # Class of executed instruction
system.cpu.op_class::MemWrite                       2      8.00%    100.00% # Class of executed instruction
system.cpu.op_class::FloatMemRead                   0      0.00%    100.00% # Class of executed instruction
system.cpu.op_class::FloatMemWrite                  0      0.00%    100.00% # Class of executed instruction
system.cpu.op_class::IprAccess                      0      0.00%    100.00% # Class of executed instruction
system.cpu.op_class::InstPrefetch                   0      0.00%    100.00% # Class of executed instruction
system.cpu.op_class::total                         25                       # Class of executed instruction
system.cpu.workload.numSyscalls                     0                       # Number of system calls
system.membus.snoop_filter.hit_multi_requests            0                       # Number of requests hitting in the snoop filter with multiple (>1) holders of the requested data.
system.membus.snoop_filter.hit_multi_snoops            0                       # Number of snoops hitting in the snoop filter with multiple (>1) holders of the requested data.
system.membus.snoop_filter.hit_single_requests            1                       # Number of requests hitting in the snoop filter with a single holder of the requested data.
system.membus.snoop_filter.hit_single_snoops            0                       # Number of snoops hitting in the snoop filter with a single holder of the requested data.
system.membus.snoop_filter.tot_requests          2414                       # Total number of requests made to the snoop filter.
system.membus.snoop_filter.tot_snoops               0                       # Total number of snoops made to the snoop filter.
system.switch_cpus.cc_regfile_reads           5523822                       # number of cc regfile reads
system.switch_cpus.cc_regfile_writes          5502906                       # number of cc regfile writes
system.switch_cpus.committedInsts            10000000                       # Number of Instructions Simulated
system.switch_cpus.committedOps              11438451                       # Number of Ops (including micro ops) Simulated
system.switch_cpus.cpi                       1.065870                       # CPI: Cycles Per Instruction
system.switch_cpus.cpi_total                 1.065870                       # CPI: Total CPI of All Threads
system.switch_cpus.idleCycles                    7681                       # Total number of cycles that the CPU has spent unscheduled due to idling
system.switch_cpus.iew.branchMispredicts       231330                       # Number of branch mispredicts detected at execute
system.switch_cpus.iew.exec_branches          3024889                       # Number of branches executed
system.switch_cpus.iew.exec_nop                 32740                       # number of nop insts executed
system.switch_cpus.iew.exec_rate             1.563145                       # Inst execution rate
system.switch_cpus.iew.exec_refs              5741564                       # number of memory reference insts executed
system.switch_cpus.iew.exec_stores            2194699                       # Number of stores executed
system.switch_cpus.iew.exec_swp                     0                       # number of swp insts executed
system.switch_cpus.iew.iewBlockCycles         3641931                       # Number of cycles IEW is blocking
system.switch_cpus.iew.iewDispLoadInsts       6226519                       # Number of dispatched load instructions
system.switch_cpus.iew.iewDispNonSpecInsts          175                       # Number of dispatched non-speculative instructions
system.switch_cpus.iew.iewDispSquashedInsts            0                       # Number of squashed instructions skipped by dispatch
system.switch_cpus.iew.iewDispStoreInsts      3943130                       # Number of dispatched store instructions
system.switch_cpus.iew.iewDispatchedInsts     26616357                       # Number of instructions dispatched to IQ
system.switch_cpus.iew.iewExecLoadInsts       3546865                       # Number of load instructions executed
system.switch_cpus.iew.iewExecSquashedInsts       303545                       # Number of squashed instructions skipped in execute
system.switch_cpus.iew.iewExecutedInsts      16661089                       # Number of executed instructions
system.switch_cpus.iew.iewIQFullEvents              0                       # Number of times the IQ has become full, causing a stall
system.switch_cpus.iew.iewIdleCycles                0                       # Number of cycles IEW is idle
system.switch_cpus.iew.iewLSQFullEvents             0                       # Number of times the LSQ has become full, causing a stall
system.switch_cpus.iew.iewSquashCycles         181504                       # Number of cycles IEW is squashing
system.switch_cpus.iew.iewUnblockCycles             0                       # Number of cycles IEW is unblocking
system.switch_cpus.iew.memOrderViolationEvents          877                       # Number of memory order violations
system.switch_cpus.iew.predictedNotTakenIncorrect       142312                       # Number of branches that were predicted not taken incorrectly
system.switch_cpus.iew.predictedTakenIncorrect        89018                       # Number of branches that were predicted taken incorrectly
system.switch_cpus.iew.wb_consumers          19996582                       # num instructions consuming a value
system.switch_cpus.iew.wb_count              16471286                       # cumulative count of insts written-back
system.switch_cpus.iew.wb_fanout             0.522179                       # average fanout of values written-back
system.switch_cpus.iew.wb_producers          10441789                       # num instructions producing a value
system.switch_cpus.iew.wb_rate               1.545338                       # insts written-back per cycle
system.switch_cpus.iew.wb_sent               16588726                       # cumulative count of insts sent to commit
system.switch_cpus.int_regfile_reads         18415442                       # number of integer regfile reads
system.switch_cpus.int_regfile_writes        11832334                       # number of integer regfile writes
system.switch_cpus.ipc                       0.938201                       # IPC: Instructions Per Cycle
system.switch_cpus.ipc_total                 0.938201                       # IPC: Total IPC of All Threads
system.switch_cpus.iq.FU_type_0::No_OpClass          452      0.00%      0.00% # Type of FU issued
system.switch_cpus.iq.FU_type_0::IntAlu      10836248     63.88%     63.88% # Type of FU issued
system.switch_cpus.iq.FU_type_0::IntMult        94274      0.56%     64.43% # Type of FU issued
system.switch_cpus.iq.FU_type_0::IntDiv            61      0.00%     64.43% # Type of FU issued
system.switch_cpus.iq.FU_type_0::FloatAdd            0      0.00%     64.43% # Type of FU issued
system.switch_cpus.iq.FU_type_0::FloatCmp            0      0.00%     64.43% # Type of FU issued
system.switch_cpus.iq.FU_type_0::FloatCvt            0      0.00%     64.43% # Type of FU issued
system.switch_cpus.iq.FU_type_0::FloatMult            0      0.00%     64.43% # Type of FU issued
system.switch_cpus.iq.FU_type_0::FloatMultAcc            0      0.00%     64.43% # Type of FU issued
system.switch_cpus.iq.FU_type_0::FloatDiv            0      0.00%     64.43% # Type of FU issued
system.switch_cpus.iq.FU_type_0::FloatMisc            0      0.00%     64.43% # Type of FU issued
system.switch_cpus.iq.FU_type_0::FloatSqrt            0      0.00%     64.43% # Type of FU issued
system.switch_cpus.iq.FU_type_0::SimdAdd            0      0.00%     64.43% # Type of FU issued
system.switch_cpus.iq.FU_type_0::SimdAddAcc            0      0.00%     64.43% # Type of FU issued
system.switch_cpus.iq.FU_type_0::SimdAlu            0      0.00%     64.43% # Type of FU issued
system.switch_cpus.iq.FU_type_0::SimdCmp            0      0.00%     64.43% # Type of FU issued
system.switch_cpus.iq.FU_type_0::SimdCvt            0      0.00%     64.43% # Type of FU issued
system.switch_cpus.iq.FU_type_0::SimdMisc            0      0.00%     64.43% # Type of FU issued
system.switch_cpus.iq.FU_type_0::SimdMult            0      0.00%     64.43% # Type of FU issued
system.switch_cpus.iq.FU_type_0::SimdMultAcc            0      0.00%     64.43% # Type of FU issued
system.switch_cpus.iq.FU_type_0::SimdShift            0      0.00%     64.43% # Type of FU issued
system.switch_cpus.iq.FU_type_0::SimdShiftAcc            0      0.00%     64.43% # Type of FU issued
system.switch_cpus.iq.FU_type_0::SimdDiv            0      0.00%     64.43% # Type of FU issued
system.switch_cpus.iq.FU_type_0::SimdSqrt            0      0.00%     64.43% # Type of FU issued
system.switch_cpus.iq.FU_type_0::SimdFloatAdd            0      0.00%     64.43% # Type of FU issued
system.switch_cpus.iq.FU_type_0::SimdFloatAlu            0      0.00%     64.43% # Type of FU issued
system.switch_cpus.iq.FU_type_0::SimdFloatCmp            0      0.00%     64.43% # Type of FU issued
system.switch_cpus.iq.FU_type_0::SimdFloatCvt            0      0.00%     64.43% # Type of FU issued
system.switch_cpus.iq.FU_type_0::SimdFloatDiv            0      0.00%     64.43% # Type of FU issued
system.switch_cpus.iq.FU_type_0::SimdFloatMisc            0      0.00%     64.43% # Type of FU issued
system.switch_cpus.iq.FU_type_0::SimdFloatMult            0      0.00%     64.43% # Type of FU issued
system.switch_cpus.iq.FU_type_0::SimdFloatMultAcc            0      0.00%     64.43% # Type of FU issued
system.switch_cpus.iq.FU_type_0::SimdFloatSqrt            0      0.00%     64.43% # Type of FU issued
system.switch_cpus.iq.FU_type_0::SimdReduceAdd            0      0.00%     64.43% # Type of FU issued
system.switch_cpus.iq.FU_type_0::SimdReduceAlu            0      0.00%     64.43% # Type of FU issued
system.switch_cpus.iq.FU_type_0::SimdReduceCmp            0      0.00%     64.43% # Type of FU issued
system.switch_cpus.iq.FU_type_0::SimdFloatReduceAdd            0      0.00%     64.43% # Type of FU issued
system.switch_cpus.iq.FU_type_0::SimdFloatReduceCmp            0      0.00%     64.43% # Type of FU issued
system.switch_cpus.iq.FU_type_0::SimdAes            0      0.00%     64.43% # Type of FU issued
system.switch_cpus.iq.FU_type_0::SimdAesMix            0      0.00%     64.43% # Type of FU issued
system.switch_cpus.iq.FU_type_0::SimdSha1Hash            0      0.00%     64.43% # Type of FU issued
system.switch_cpus.iq.FU_type_0::SimdSha1Hash2            0      0.00%     64.43% # Type of FU issued
system.switch_cpus.iq.FU_type_0::SimdSha256Hash            0      0.00%     64.43% # Type of FU issued
system.switch_cpus.iq.FU_type_0::SimdSha256Hash2            0      0.00%     64.43% # Type of FU issued
system.switch_cpus.iq.FU_type_0::SimdShaSigma2            0      0.00%     64.43% # Type of FU issued
system.switch_cpus.iq.FU_type_0::SimdShaSigma3            0      0.00%     64.43% # Type of FU issued
system.switch_cpus.iq.FU_type_0::SimdPredAlu            0      0.00%     64.43% # Type of FU issued
system.switch_cpus.iq.FU_type_0::MemRead      3721607     21.94%     86.37% # Type of FU issued
system.switch_cpus.iq.FU_type_0::MemWrite      2311996     13.63%    100.00% # Type of FU issued
system.switch_cpus.iq.FU_type_0::FloatMemRead            0      0.00%    100.00% # Type of FU issued
system.switch_cpus.iq.FU_type_0::FloatMemWrite            0      0.00%    100.00% # Type of FU issued
system.switch_cpus.iq.FU_type_0::IprAccess            0      0.00%    100.00% # Type of FU issued
system.switch_cpus.iq.FU_type_0::InstPrefetch            0      0.00%    100.00% # Type of FU issued
system.switch_cpus.iq.FU_type_0::total       16964638                       # Type of FU issued
system.switch_cpus.iq.fp_alu_accesses               0                       # Number of floating point alu accesses
system.switch_cpus.iq.fp_inst_queue_reads            0                       # Number of floating instruction queue reads
system.switch_cpus.iq.fp_inst_queue_wakeup_accesses            0                       # Number of floating instruction queue wakeup accesses
system.switch_cpus.iq.fp_inst_queue_writes            0                       # Number of floating instruction queue writes
system.switch_cpus.iq.fu_busy_cnt             8384198                       # FU busy when requested
system.switch_cpus.iq.fu_busy_rate           0.494216                       # FU busy rate (busy events/executed inst)
system.switch_cpus.iq.fu_full::No_OpClass            0      0.00%      0.00% # attempts to use FU when none available
system.switch_cpus.iq.fu_full::IntAlu         4952234     59.07%     59.07% # attempts to use FU when none available
system.switch_cpus.iq.fu_full::IntMult              0      0.00%     59.07% # attempts to use FU when none available
system.switch_cpus.iq.fu_full::IntDiv               0      0.00%     59.07% # attempts to use FU when none available
system.switch_cpus.iq.fu_full::FloatAdd             0      0.00%     59.07% # attempts to use FU when none available
system.switch_cpus.iq.fu_full::FloatCmp             0      0.00%     59.07% # attempts to use FU when none available
system.switch_cpus.iq.fu_full::FloatCvt             0      0.00%     59.07% # attempts to use FU when none available
system.switch_cpus.iq.fu_full::FloatMult            0      0.00%     59.07% # attempts to use FU when none available
system.switch_cpus.iq.fu_full::FloatMultAcc            0      0.00%     59.07% # attempts to use FU when none available
system.switch_cpus.iq.fu_full::FloatDiv             0      0.00%     59.07% # attempts to use FU when none available
system.switch_cpus.iq.fu_full::FloatMisc            0      0.00%     59.07% # attempts to use FU when none available
system.switch_cpus.iq.fu_full::FloatSqrt            0      0.00%     59.07% # attempts to use FU when none available
system.switch_cpus.iq.fu_full::SimdAdd              0      0.00%     59.07% # attempts to use FU when none available
system.switch_cpus.iq.fu_full::SimdAddAcc            0      0.00%     59.07% # attempts to use FU when none available
system.switch_cpus.iq.fu_full::SimdAlu              0      0.00%     59.07% # attempts to use FU when none available
system.switch_cpus.iq.fu_full::SimdCmp              0      0.00%     59.07% # attempts to use FU when none available
system.switch_cpus.iq.fu_full::SimdCvt              0      0.00%     59.07% # attempts to use FU when none available
system.switch_cpus.iq.fu_full::SimdMisc             0      0.00%     59.07% # attempts to use FU when none available
system.switch_cpus.iq.fu_full::SimdMult             0      0.00%     59.07% # attempts to use FU when none available
system.switch_cpus.iq.fu_full::SimdMultAcc            0      0.00%     59.07% # attempts to use FU when none available
system.switch_cpus.iq.fu_full::SimdShift            0      0.00%     59.07% # attempts to use FU when none available
system.switch_cpus.iq.fu_full::SimdShiftAcc            0      0.00%     59.07% # attempts to use FU when none available
system.switch_cpus.iq.fu_full::SimdDiv              0      0.00%     59.07% # attempts to use FU when none available
system.switch_cpus.iq.fu_full::SimdSqrt             0      0.00%     59.07% # attempts to use FU when none available
system.switch_cpus.iq.fu_full::SimdFloatAdd            0      0.00%     59.07% # attempts to use FU when none available
system.switch_cpus.iq.fu_full::SimdFloatAlu            0      0.00%     59.07% # attempts to use FU when none available
system.switch_cpus.iq.fu_full::SimdFloatCmp            0      0.00%     59.07% # attempts to use FU when none available
system.switch_cpus.iq.fu_full::SimdFloatCvt            0      0.00%     59.07% # attempts to use FU when none available
system.switch_cpus.iq.fu_full::SimdFloatDiv            0      0.00%     59.07% # attempts to use FU when none available
system.switch_cpus.iq.fu_full::SimdFloatMisc            0      0.00%     59.07% # attempts to use FU when none available
system.switch_cpus.iq.fu_full::SimdFloatMult            0      0.00%     59.07% # attempts to use FU when none available
system.switch_cpus.iq.fu_full::SimdFloatMultAcc            0      0.00%     59.07% # attempts to use FU when none available
system.switch_cpus.iq.fu_full::SimdFloatSqrt            0      0.00%     59.07% # attempts to use FU when none available
system.switch_cpus.iq.fu_full::SimdReduceAdd            0      0.00%     59.07% # attempts to use FU when none available
system.switch_cpus.iq.fu_full::SimdReduceAlu            0      0.00%     59.07% # attempts to use FU when none available
system.switch_cpus.iq.fu_full::SimdReduceCmp            0      0.00%     59.07% # attempts to use FU when none available
system.switch_cpus.iq.fu_full::SimdFloatReduceAdd            0      0.00%     59.07% # attempts to use FU when none available
system.switch_cpus.iq.fu_full::SimdFloatReduceCmp            0      0.00%     59.07% # attempts to use FU when none available
system.switch_cpus.iq.fu_full::SimdAes              0      0.00%     59.07% # attempts to use FU when none available
system.switch_cpus.iq.fu_full::SimdAesMix            0      0.00%     59.07% # attempts to use FU when none available
system.switch_cpus.iq.fu_full::SimdSha1Hash            0      0.00%     59.07% # attempts to use FU when none available
system.switch_cpus.iq.fu_full::SimdSha1Hash2            0      0.00%     59.07% # attempts to use FU when none available
system.switch_cpus.iq.fu_full::SimdSha256Hash            0      0.00%     59.07% # attempts to use FU when none available
system.switch_cpus.iq.fu_full::SimdSha256Hash2            0      0.00%     59.07% # attempts to use FU when none available
system.switch_cpus.iq.fu_full::SimdShaSigma2            0      0.00%     59.07% # attempts to use FU when none available
system.switch_cpus.iq.fu_full::SimdShaSigma3            0      0.00%     59.07% # attempts to use FU when none available
system.switch_cpus.iq.fu_full::SimdPredAlu            0      0.00%     59.07% # attempts to use FU when none available
system.switch_cpus.iq.fu_full::MemRead        2106181     25.12%     84.19% # attempts to use FU when none available
system.switch_cpus.iq.fu_full::MemWrite       1325783     15.81%    100.00% # attempts to use FU when none available
system.switch_cpus.iq.fu_full::FloatMemRead            0      0.00%    100.00% # attempts to use FU when none available
system.switch_cpus.iq.fu_full::FloatMemWrite            0      0.00%    100.00% # attempts to use FU when none available
system.switch_cpus.iq.fu_full::IprAccess            0      0.00%    100.00% # attempts to use FU when none available
system.switch_cpus.iq.fu_full::InstPrefetch            0      0.00%    100.00% # attempts to use FU when none available
system.switch_cpus.iq.int_alu_accesses       25348384                       # Number of integer alu accesses
system.switch_cpus.iq.int_inst_queue_reads     54949416                       # Number of integer instruction queue reads
system.switch_cpus.iq.int_inst_queue_wakeup_accesses     16471286                       # Number of integer instruction queue wakeup accesses
system.switch_cpus.iq.int_inst_queue_writes     41729542                       # Number of integer instruction queue writes
system.switch_cpus.iq.iqInstsAdded           26583442                       # Number of instructions added to the IQ (excludes non-spec)
system.switch_cpus.iq.iqInstsIssued          16964638                       # Number of instructions issued
system.switch_cpus.iq.iqNonSpecInstsAdded          175                       # Number of non-speculative instructions added to the IQ
system.switch_cpus.iq.iqSquashedInstsExamined     15145059                       # Number of squashed instructions iterated over during squash; mainly for profiling
system.switch_cpus.iq.iqSquashedInstsIssued      1984931                       # Number of squashed instructions issued
system.switch_cpus.iq.iqSquashedNonSpecRemoved          175                       # Number of squashed non-spec instructions that were removed
system.switch_cpus.iq.iqSquashedOperandsExamined     15502965                       # Number of squashed operands that are examined and possibly removed from graph
system.switch_cpus.iq.issued_per_cycle::samples     10651015                       # Number of insts issued each cycle
system.switch_cpus.iq.issued_per_cycle::mean     1.592772                       # Number of insts issued each cycle
system.switch_cpus.iq.issued_per_cycle::stdev     1.561174                       # Number of insts issued each cycle
system.switch_cpus.iq.issued_per_cycle::underflows            0      0.00%      0.00% # Number of insts issued each cycle
system.switch_cpus.iq.issued_per_cycle::0      4793769     45.01%     45.01% # Number of insts issued each cycle
system.switch_cpus.iq.issued_per_cycle::1       382537      3.59%     48.60% # Number of insts issued each cycle
system.switch_cpus.iq.issued_per_cycle::2      1101497     10.34%     58.94% # Number of insts issued each cycle
system.switch_cpus.iq.issued_per_cycle::3      3121940     29.31%     88.25% # Number of insts issued each cycle
system.switch_cpus.iq.issued_per_cycle::4      1243073     11.67%     99.92% # Number of insts issued each cycle
system.switch_cpus.iq.issued_per_cycle::5         8199      0.08%    100.00% # Number of insts issued each cycle
system.switch_cpus.iq.issued_per_cycle::6            0      0.00%    100.00% # Number of insts issued each cycle
system.switch_cpus.iq.issued_per_cycle::7            0      0.00%    100.00% # Number of insts issued each cycle
system.switch_cpus.iq.issued_per_cycle::8            0      0.00%    100.00% # Number of insts issued each cycle
system.switch_cpus.iq.issued_per_cycle::overflows            0      0.00%    100.00% # Number of insts issued each cycle
system.switch_cpus.iq.issued_per_cycle::min_value            0                       # Number of insts issued each cycle
system.switch_cpus.iq.issued_per_cycle::max_value            5                       # Number of insts issued each cycle
system.switch_cpus.iq.issued_per_cycle::total     10651015                       # Number of insts issued each cycle
system.switch_cpus.iq.rate                   1.591624                       # Inst issue rate
system.switch_cpus.iq.vec_alu_accesses              0                       # Number of vector alu accesses
system.switch_cpus.iq.vec_inst_queue_reads            0                       # Number of vector instruction queue reads
system.switch_cpus.iq.vec_inst_queue_wakeup_accesses            0                       # Number of vector instruction queue wakeup accesses
system.switch_cpus.iq.vec_inst_queue_writes            0                       # Number of vector instruction queue writes
system.switch_cpus.memDep0.conflictingLoads      3034440                       # Number of conflicting loads.
system.switch_cpus.memDep0.conflictingStores      2280591                       # Number of conflicting stores.
system.switch_cpus.memDep0.insertedLoads      6226519                       # Number of loads inserted to the mem dependence unit.
system.switch_cpus.memDep0.insertedStores      3943130                       # Number of stores inserted to the mem dependence unit.
system.switch_cpus.misc_regfile_reads        39788625                       # number of misc regfile reads
system.switch_cpus.misc_regfile_writes              1                       # number of misc regfile writes
system.switch_cpus.numCycles                 10658696                       # number of cpu cycles simulated
system.switch_cpus.numWorkItemsCompleted            0                       # number of work items this cpu completed
system.switch_cpus.numWorkItemsStarted              0                       # number of work items this cpu started
system.switch_cpus.timesIdled                      62                       # Number of times that the entire CPU went into an idle state and unscheduled itself
system.switch_cpus.vec_regfile_writes              44                       # number of vector regfile writes
system.tol2bus.snoop_filter.hit_multi_requests            2                       # Number of requests hitting in the snoop filter with multiple (>1) holders of the requested data.
system.tol2bus.snoop_filter.hit_multi_snoops            0                       # Number of snoops hitting in the snoop filter with multiple (>1) holders of the requested data.
system.tol2bus.snoop_filter.hit_single_requests         2557                       # Number of requests hitting in the snoop filter with a single holder of the requested data.
system.tol2bus.snoop_filter.hit_single_snoops           44                       # Number of snoops hitting in the snoop filter with a single holder of the requested data.
system.tol2bus.snoop_filter.tot_requests         5460                       # Total number of requests made to the snoop filter.
system.tol2bus.snoop_filter.tot_snoops             44                       # Total number of snoops made to the snoop filter.
system.clk_domain.clock                          1000                       # Clock period in ticks
system.cpu.dcache.demand_hits::.cpu.data            3                       # number of demand (read+write) hits
system.cpu.dcache.demand_hits::.switch_cpus.data      3918655                       # number of demand (read+write) hits
system.cpu.dcache.demand_hits::total          3918658                       # number of demand (read+write) hits
system.cpu.dcache.overall_hits::.cpu.data            3                       # number of overall hits
system.cpu.dcache.overall_hits::.switch_cpus.data      3918655                       # number of overall hits
system.cpu.dcache.overall_hits::total         3918658                       # number of overall hits
system.cpu.dcache.demand_misses::.cpu.data            4                       # number of demand (read+write) misses
system.cpu.dcache.demand_misses::.switch_cpus.data         8870                       # number of demand (read+write) misses
system.cpu.dcache.demand_misses::total           8874                       # number of demand (read+write) misses
system.cpu.dcache.overall_misses::.cpu.data            4                       # number of overall misses
system.cpu.dcache.overall_misses::.switch_cpus.data         8870                       # number of overall misses
system.cpu.dcache.overall_misses::total          8874                       # number of overall misses
system.cpu.dcache.demand_miss_latency::.switch_cpus.data    475649199                       # number of demand (read+write) miss cycles
system.cpu.dcache.demand_miss_latency::total    475649199                       # number of demand (read+write) miss cycles
system.cpu.dcache.overall_miss_latency::.switch_cpus.data    475649199                       # number of overall miss cycles
system.cpu.dcache.overall_miss_latency::total    475649199                       # number of overall miss cycles
system.cpu.dcache.demand_accesses::.cpu.data            7                       # number of demand (read+write) accesses
system.cpu.dcache.demand_accesses::.switch_cpus.data      3927525                       # number of demand (read+write) accesses
system.cpu.dcache.demand_accesses::total      3927532                       # number of demand (read+write) accesses
system.cpu.dcache.overall_accesses::.cpu.data            7                       # number of overall (read+write) accesses
system.cpu.dcache.overall_accesses::.switch_cpus.data      3927525                       # number of overall (read+write) accesses
system.cpu.dcache.overall_accesses::total      3927532                       # number of overall (read+write) accesses
system.cpu.dcache.demand_miss_rate::.cpu.data     0.571429                       # miss rate for demand accesses
system.cpu.dcache.demand_miss_rate::.switch_cpus.data     0.002258                       # miss rate for demand accesses
system.cpu.dcache.demand_miss_rate::total     0.002259                       # miss rate for demand accesses
system.cpu.dcache.overall_miss_rate::.cpu.data     0.571429                       # miss rate for overall accesses
system.cpu.dcache.overall_miss_rate::.switch_cpus.data     0.002258                       # miss rate for overall accesses
system.cpu.dcache.overall_miss_rate::total     0.002259                       # miss rate for overall accesses
system.cpu.dcache.demand_avg_miss_latency::.switch_cpus.data 53624.486922                       # average overall miss latency
system.cpu.dcache.demand_avg_miss_latency::total 53600.315416                       # average overall miss latency
system.cpu.dcache.overall_avg_miss_latency::.switch_cpus.data 53624.486922                       # average overall miss latency
system.cpu.dcache.overall_avg_miss_latency::total 53600.315416                       # average overall miss latency
system.cpu.dcache.blocked_cycles::no_mshrs            0                       # number of cycles access was blocked
system.cpu.dcache.blocked_cycles::no_targets         4737                       # number of cycles access was blocked
system.cpu.dcache.blocked::no_mshrs                 0                       # number of cycles access was blocked
system.cpu.dcache.blocked::no_targets              55                       # number of cycles access was blocked
system.cpu.dcache.avg_blocked_cycles::no_mshrs          nan                       # average number of cycles each access was blocked
system.cpu.dcache.avg_blocked_cycles::no_targets    86.127273                       # average number of cycles each access was blocked
system.cpu.dcache.writebacks::.writebacks         2556                       # number of writebacks
system.cpu.dcache.writebacks::total              2556                       # number of writebacks
system.cpu.dcache.demand_mshr_hits::.switch_cpus.data         6061                       # number of demand (read+write) MSHR hits
system.cpu.dcache.demand_mshr_hits::total         6061                       # number of demand (read+write) MSHR hits
system.cpu.dcache.overall_mshr_hits::.switch_cpus.data         6061                       # number of overall MSHR hits
system.cpu.dcache.overall_mshr_hits::total         6061                       # number of overall MSHR hits
system.cpu.dcache.demand_mshr_misses::.switch_cpus.data         2809                       # number of demand (read+write) MSHR misses
system.cpu.dcache.demand_mshr_misses::total         2809                       # number of demand (read+write) MSHR misses
system.cpu.dcache.overall_mshr_misses::.switch_cpus.data         2809                       # number of overall MSHR misses
system.cpu.dcache.overall_mshr_misses::total         2809                       # number of overall MSHR misses
system.cpu.dcache.demand_mshr_miss_latency::.switch_cpus.data    157164399                       # number of demand (read+write) MSHR miss cycles
system.cpu.dcache.demand_mshr_miss_latency::total    157164399                       # number of demand (read+write) MSHR miss cycles
system.cpu.dcache.overall_mshr_miss_latency::.switch_cpus.data    157164399                       # number of overall MSHR miss cycles
system.cpu.dcache.overall_mshr_miss_latency::total    157164399                       # number of overall MSHR miss cycles
system.cpu.dcache.demand_mshr_miss_rate::.switch_cpus.data     0.000715                       # mshr miss rate for demand accesses
system.cpu.dcache.demand_mshr_miss_rate::total     0.000715                       # mshr miss rate for demand accesses
system.cpu.dcache.overall_mshr_miss_rate::.switch_cpus.data     0.000715                       # mshr miss rate for overall accesses
system.cpu.dcache.overall_mshr_miss_rate::total     0.000715                       # mshr miss rate for overall accesses
system.cpu.dcache.demand_avg_mshr_miss_latency::.switch_cpus.data 55950.302243                       # average overall mshr miss latency
system.cpu.dcache.demand_avg_mshr_miss_latency::total 55950.302243                       # average overall mshr miss latency
system.cpu.dcache.overall_avg_mshr_miss_latency::.switch_cpus.data 55950.302243                       # average overall mshr miss latency
system.cpu.dcache.overall_avg_mshr_miss_latency::total 55950.302243                       # average overall mshr miss latency
system.cpu.dcache.replacements                   2556                       # number of replacements
system.cpu.dcache.ReadReq_hits::.cpu.data            2                       # number of ReadReq hits
system.cpu.dcache.ReadReq_hits::.switch_cpus.data      2162480                       # number of ReadReq hits
system.cpu.dcache.ReadReq_hits::total         2162482                       # number of ReadReq hits
system.cpu.dcache.ReadReq_misses::.cpu.data            3                       # number of ReadReq misses
system.cpu.dcache.ReadReq_misses::.switch_cpus.data         7728                       # number of ReadReq misses
system.cpu.dcache.ReadReq_misses::total          7731                       # number of ReadReq misses
system.cpu.dcache.ReadReq_miss_latency::.switch_cpus.data    447738000                       # number of ReadReq miss cycles
system.cpu.dcache.ReadReq_miss_latency::total    447738000                       # number of ReadReq miss cycles
system.cpu.dcache.ReadReq_accesses::.cpu.data            5                       # number of ReadReq accesses(hits+misses)
system.cpu.dcache.ReadReq_accesses::.switch_cpus.data      2170208                       # number of ReadReq accesses(hits+misses)
system.cpu.dcache.ReadReq_accesses::total      2170213                       # number of ReadReq accesses(hits+misses)
system.cpu.dcache.ReadReq_miss_rate::.cpu.data     0.600000                       # miss rate for ReadReq accesses
system.cpu.dcache.ReadReq_miss_rate::.switch_cpus.data     0.003561                       # miss rate for ReadReq accesses
system.cpu.dcache.ReadReq_miss_rate::total     0.003562                       # miss rate for ReadReq accesses
system.cpu.dcache.ReadReq_avg_miss_latency::.switch_cpus.data 57937.111801                       # average ReadReq miss latency
system.cpu.dcache.ReadReq_avg_miss_latency::total 57914.629414                       # average ReadReq miss latency
system.cpu.dcache.ReadReq_mshr_hits::.switch_cpus.data         5460                       # number of ReadReq MSHR hits
system.cpu.dcache.ReadReq_mshr_hits::total         5460                       # number of ReadReq MSHR hits
system.cpu.dcache.ReadReq_mshr_misses::.switch_cpus.data         2268                       # number of ReadReq MSHR misses
system.cpu.dcache.ReadReq_mshr_misses::total         2268                       # number of ReadReq MSHR misses
system.cpu.dcache.ReadReq_mshr_miss_latency::.switch_cpus.data    147755200                       # number of ReadReq MSHR miss cycles
system.cpu.dcache.ReadReq_mshr_miss_latency::total    147755200                       # number of ReadReq MSHR miss cycles
system.cpu.dcache.ReadReq_mshr_miss_rate::.switch_cpus.data     0.001045                       # mshr miss rate for ReadReq accesses
system.cpu.dcache.ReadReq_mshr_miss_rate::total     0.001045                       # mshr miss rate for ReadReq accesses
system.cpu.dcache.ReadReq_avg_mshr_miss_latency::.switch_cpus.data 65147.795414                       # average ReadReq mshr miss latency
system.cpu.dcache.ReadReq_avg_mshr_miss_latency::total 65147.795414                       # average ReadReq mshr miss latency
system.cpu.dcache.WriteReq_hits::.cpu.data            1                       # number of WriteReq hits
system.cpu.dcache.WriteReq_hits::.switch_cpus.data      1756175                       # number of WriteReq hits
system.cpu.dcache.WriteReq_hits::total        1756176                       # number of WriteReq hits
system.cpu.dcache.WriteReq_misses::.cpu.data            1                       # number of WriteReq misses
system.cpu.dcache.WriteReq_misses::.switch_cpus.data         1142                       # number of WriteReq misses
system.cpu.dcache.WriteReq_misses::total         1143                       # number of WriteReq misses
system.cpu.dcache.WriteReq_miss_latency::.switch_cpus.data     27911199                       # number of WriteReq miss cycles
system.cpu.dcache.WriteReq_miss_latency::total     27911199                       # number of WriteReq miss cycles
system.cpu.dcache.WriteReq_accesses::.cpu.data            2                       # number of WriteReq accesses(hits+misses)
system.cpu.dcache.WriteReq_accesses::.switch_cpus.data      1757317                       # number of WriteReq accesses(hits+misses)
system.cpu.dcache.WriteReq_accesses::total      1757319                       # number of WriteReq accesses(hits+misses)
system.cpu.dcache.WriteReq_miss_rate::.cpu.data     0.500000                       # miss rate for WriteReq accesses
system.cpu.dcache.WriteReq_miss_rate::.switch_cpus.data     0.000650                       # miss rate for WriteReq accesses
system.cpu.dcache.WriteReq_miss_rate::total     0.000650                       # miss rate for WriteReq accesses
system.cpu.dcache.WriteReq_avg_miss_latency::.switch_cpus.data 24440.629597                       # average WriteReq miss latency
system.cpu.dcache.WriteReq_avg_miss_latency::total 24419.246719                       # average WriteReq miss latency
system.cpu.dcache.WriteReq_mshr_hits::.switch_cpus.data          601                       # number of WriteReq MSHR hits
system.cpu.dcache.WriteReq_mshr_hits::total          601                       # number of WriteReq MSHR hits
system.cpu.dcache.WriteReq_mshr_misses::.switch_cpus.data          541                       # number of WriteReq MSHR misses
system.cpu.dcache.WriteReq_mshr_misses::total          541                       # number of WriteReq MSHR misses
system.cpu.dcache.WriteReq_mshr_miss_latency::.switch_cpus.data      9409199                       # number of WriteReq MSHR miss cycles
system.cpu.dcache.WriteReq_mshr_miss_latency::total      9409199                       # number of WriteReq MSHR miss cycles
system.cpu.dcache.WriteReq_mshr_miss_rate::.switch_cpus.data     0.000308                       # mshr miss rate for WriteReq accesses
system.cpu.dcache.WriteReq_mshr_miss_rate::total     0.000308                       # mshr miss rate for WriteReq accesses
system.cpu.dcache.WriteReq_avg_mshr_miss_latency::.switch_cpus.data 17392.234750                       # average WriteReq mshr miss latency
system.cpu.dcache.WriteReq_avg_mshr_miss_latency::total 17392.234750                       # average WriteReq mshr miss latency
system.cpu.dcache.power_state.pwrStateResidencyTicks::UNDEFINED 264114986800                       # Cumulative time (in ticks) in various power states
system.cpu.dcache.tags.tagsinuse           248.481735                       # Cycle average of tags in use
system.cpu.dcache.tags.total_refs             3106497                       # Total number of references to valid blocks.
system.cpu.dcache.tags.sampled_refs              2556                       # Sample count of references to valid blocks.
system.cpu.dcache.tags.avg_refs           1215.374413                       # Average number of references to valid blocks.
system.cpu.dcache.tags.warmup_cycle      259851498800                       # Cycle when the warmup percentage was hit.
system.cpu.dcache.tags.occ_blocks::.cpu.data     0.819095                       # Average occupied blocks per requestor
system.cpu.dcache.tags.occ_blocks::.switch_cpus.data   247.662640                       # Average occupied blocks per requestor
system.cpu.dcache.tags.occ_percent::.cpu.data     0.003200                       # Average percentage of cache occupancy
system.cpu.dcache.tags.occ_percent::.switch_cpus.data     0.967432                       # Average percentage of cache occupancy
system.cpu.dcache.tags.occ_percent::total     0.970632                       # Average percentage of cache occupancy
system.cpu.dcache.tags.occ_task_id_blocks::1024          256                       # Occupied blocks per task id
system.cpu.dcache.tags.age_task_id_blocks_1024::0           12                       # Occupied blocks per task id
system.cpu.dcache.tags.age_task_id_blocks_1024::1           79                       # Occupied blocks per task id
system.cpu.dcache.tags.age_task_id_blocks_1024::2          145                       # Occupied blocks per task id
system.cpu.dcache.tags.age_task_id_blocks_1024::3           20                       # Occupied blocks per task id
system.cpu.dcache.tags.occ_task_id_percent::1024            1                       # Percentage of cache occupancy per task id
system.cpu.dcache.tags.tag_accesses          31423068                       # Number of tag accesses
system.cpu.dcache.tags.data_accesses         31423068                       # Number of data accesses
system.cpu.dcache.tags.power_state.pwrStateResidencyTicks::UNDEFINED 264114986800                       # Cumulative time (in ticks) in various power states
system.cpu.dtb.instHits                             0                       # ITB inst hits
system.cpu.dtb.instMisses                           0                       # ITB inst misses
system.cpu.dtb.readHits                             0                       # DTB read hits
system.cpu.dtb.readMisses                           0                       # DTB read misses
system.cpu.dtb.writeHits                            0                       # DTB write hits
system.cpu.dtb.writeMisses                          0                       # DTB write misses
system.cpu.dtb.inserts                              0                       # Number of times an entry is inserted into the TLB
system.cpu.dtb.flushTlb                             2                       # Number of times complete TLB was flushed
system.cpu.dtb.flushTlbMva                          0                       # Number of times TLB was flushed by MVA
system.cpu.dtb.flushTlbMvaAsid                      0                       # Number of times TLB was flushed by MVA & ASID
system.cpu.dtb.flushTlbAsid                         0                       # Number of times TLB was flushed by ASID
system.cpu.dtb.flushedEntries                       0                       # Number of entries that have been flushed from TLB
system.cpu.dtb.alignFaults                          0                       # Number of TLB faults due to alignment restrictions
system.cpu.dtb.prefetchFaults                       0                       # Number of TLB faults due to prefetch
system.cpu.dtb.domainFaults                         0                       # Number of TLB faults due to domain restrictions
system.cpu.dtb.permsFaults                          0                       # Number of TLB faults due to permissions restrictions
system.cpu.dtb.readAccesses                         0                       # DTB read accesses
system.cpu.dtb.writeAccesses                        0                       # DTB write accesses
system.cpu.dtb.instAccesses                         0                       # ITB inst accesses
system.cpu.dtb.hits                                 0                       # Total TLB (inst and data) hits
system.cpu.dtb.misses                               0                       # Total TLB (inst and data) misses
system.cpu.dtb.accesses                             0                       # Total TLB (inst and data) accesses
system.cpu.dtb.stage2_mmu.stage2_tlb.instHits            0                       # ITB inst hits
system.cpu.dtb.stage2_mmu.stage2_tlb.instMisses            0                       # ITB inst misses
system.cpu.dtb.stage2_mmu.stage2_tlb.readHits            0                       # DTB read hits
system.cpu.dtb.stage2_mmu.stage2_tlb.readMisses            0                       # DTB read misses
system.cpu.dtb.stage2_mmu.stage2_tlb.writeHits            0                       # DTB write hits
system.cpu.dtb.stage2_mmu.stage2_tlb.writeMisses            0                       # DTB write misses
system.cpu.dtb.stage2_mmu.stage2_tlb.inserts            0                       # Number of times an entry is inserted into the TLB
system.cpu.dtb.stage2_mmu.stage2_tlb.flushTlb            0                       # Number of times complete TLB was flushed
system.cpu.dtb.stage2_mmu.stage2_tlb.flushTlbMva            0                       # Number of times TLB was flushed by MVA
system.cpu.dtb.stage2_mmu.stage2_tlb.flushTlbMvaAsid            0                       # Number of times TLB was flushed by MVA & ASID
system.cpu.dtb.stage2_mmu.stage2_tlb.flushTlbAsid            0                       # Number of times TLB was flushed by ASID
system.cpu.dtb.stage2_mmu.stage2_tlb.flushedEntries            0                       # Number of entries that have been flushed from TLB
system.cpu.dtb.stage2_mmu.stage2_tlb.alignFaults            0                       # Number of TLB faults due to alignment restrictions
system.cpu.dtb.stage2_mmu.stage2_tlb.prefetchFaults            0                       # Number of TLB faults due to prefetch
system.cpu.dtb.stage2_mmu.stage2_tlb.domainFaults            0                       # Number of TLB faults due to domain restrictions
system.cpu.dtb.stage2_mmu.stage2_tlb.permsFaults            0                       # Number of TLB faults due to permissions restrictions
system.cpu.dtb.stage2_mmu.stage2_tlb.readAccesses            0                       # DTB read accesses
system.cpu.dtb.stage2_mmu.stage2_tlb.writeAccesses            0                       # DTB write accesses
system.cpu.dtb.stage2_mmu.stage2_tlb.instAccesses            0                       # ITB inst accesses
system.cpu.dtb.stage2_mmu.stage2_tlb.hits            0                       # Total TLB (inst and data) hits
system.cpu.dtb.stage2_mmu.stage2_tlb.misses            0                       # Total TLB (inst and data) misses
system.cpu.dtb.stage2_mmu.stage2_tlb.accesses            0                       # Total TLB (inst and data) accesses
system.cpu.dtb.stage2_mmu.stage2_tlb.walker.walks            0                       # Table walker walks requested
system.cpu.dtb.stage2_mmu.stage2_tlb.walker.requestOrigin_Requested::Data            0                       # Table walker requests started/completed, data/inst
system.cpu.dtb.stage2_mmu.stage2_tlb.walker.requestOrigin_Requested::Inst            0                       # Table walker requests started/completed, data/inst
system.cpu.dtb.stage2_mmu.stage2_tlb.walker.requestOrigin_Requested::total            0                       # Table walker requests started/completed, data/inst
system.cpu.dtb.stage2_mmu.stage2_tlb.walker.requestOrigin_Completed::Data            0                       # Table walker requests started/completed, data/inst
system.cpu.dtb.stage2_mmu.stage2_tlb.walker.requestOrigin_Completed::Inst            0                       # Table walker requests started/completed, data/inst
system.cpu.dtb.stage2_mmu.stage2_tlb.walker.requestOrigin_Completed::total            0                       # Table walker requests started/completed, data/inst
system.cpu.dtb.stage2_mmu.stage2_tlb.walker.requestOrigin::total            0                       # Table walker requests started/completed, data/inst
system.cpu.dtb.stage2_mmu.stage2_tlb.walker.power_state.pwrStateResidencyTicks::UNDEFINED 264114986800                       # Cumulative time (in ticks) in various power states
system.cpu.dtb.walker.walks                         0                       # Table walker walks requested
system.cpu.dtb.walker.requestOrigin_Requested::Data            0                       # Table walker requests started/completed, data/inst
system.cpu.dtb.walker.requestOrigin_Requested::Inst            0                       # Table walker requests started/completed, data/inst
system.cpu.dtb.walker.requestOrigin_Requested::total            0                       # Table walker requests started/completed, data/inst
system.cpu.dtb.walker.requestOrigin_Completed::Data            0                       # Table walker requests started/completed, data/inst
system.cpu.dtb.walker.requestOrigin_Completed::Inst            0                       # Table walker requests started/completed, data/inst
system.cpu.dtb.walker.requestOrigin_Completed::total            0                       # Table walker requests started/completed, data/inst
system.cpu.dtb.walker.requestOrigin::total            0                       # Table walker requests started/completed, data/inst
system.cpu.dtb.walker.power_state.pwrStateResidencyTicks::UNDEFINED 264114986800                       # Cumulative time (in ticks) in various power states
system.cpu.dtb_walker_cache.blocked_cycles::no_mshrs            0                       # number of cycles access was blocked
system.cpu.dtb_walker_cache.blocked_cycles::no_targets            0                       # number of cycles access was blocked
system.cpu.dtb_walker_cache.blocked::no_mshrs            0                       # number of cycles access was blocked
system.cpu.dtb_walker_cache.blocked::no_targets            0                       # number of cycles access was blocked
system.cpu.dtb_walker_cache.avg_blocked_cycles::no_mshrs          nan                       # average number of cycles each access was blocked
system.cpu.dtb_walker_cache.avg_blocked_cycles::no_targets          nan                       # average number of cycles each access was blocked
system.cpu.dtb_walker_cache.replacements            0                       # number of replacements
system.cpu.dtb_walker_cache.power_state.pwrStateResidencyTicks::UNDEFINED 264114986800                       # Cumulative time (in ticks) in various power states
system.cpu.dtb_walker_cache.tags.tagsinuse            0                       # Cycle average of tags in use
system.cpu.dtb_walker_cache.tags.total_refs            0                       # Total number of references to valid blocks.
system.cpu.dtb_walker_cache.tags.sampled_refs            0                       # Sample count of references to valid blocks.
system.cpu.dtb_walker_cache.tags.avg_refs          nan                       # Average number of references to valid blocks.
system.cpu.dtb_walker_cache.tags.warmup_cycle            0                       # Cycle when the warmup percentage was hit.
system.cpu.dtb_walker_cache.tags.tag_accesses            0                       # Number of tag accesses
system.cpu.dtb_walker_cache.tags.data_accesses            0                       # Number of data accesses
system.cpu.dtb_walker_cache.tags.power_state.pwrStateResidencyTicks::UNDEFINED 264114986800                       # Cumulative time (in ticks) in various power states
system.cpu.icache.demand_hits::.cpu.inst           21                       # number of demand (read+write) hits
system.cpu.icache.demand_hits::.switch_cpus.inst      4635049                       # number of demand (read+write) hits
system.cpu.icache.demand_hits::total          4635070                       # number of demand (read+write) hits
system.cpu.icache.overall_hits::.cpu.inst           21                       # number of overall hits
system.cpu.icache.overall_hits::.switch_cpus.inst      4635049                       # number of overall hits
system.cpu.icache.overall_hits::total         4635070                       # number of overall hits
system.cpu.icache.demand_misses::.cpu.inst            2                       # number of demand (read+write) misses
system.cpu.icache.demand_misses::.switch_cpus.inst          110                       # number of demand (read+write) misses
system.cpu.icache.demand_misses::total            112                       # number of demand (read+write) misses
system.cpu.icache.overall_misses::.cpu.inst            2                       # number of overall misses
system.cpu.icache.overall_misses::.switch_cpus.inst          110                       # number of overall misses
system.cpu.icache.overall_misses::total           112                       # number of overall misses
system.cpu.icache.demand_miss_latency::.switch_cpus.inst      7556799                       # number of demand (read+write) miss cycles
system.cpu.icache.demand_miss_latency::total      7556799                       # number of demand (read+write) miss cycles
system.cpu.icache.overall_miss_latency::.switch_cpus.inst      7556799                       # number of overall miss cycles
system.cpu.icache.overall_miss_latency::total      7556799                       # number of overall miss cycles
system.cpu.icache.demand_accesses::.cpu.inst           23                       # number of demand (read+write) accesses
system.cpu.icache.demand_accesses::.switch_cpus.inst      4635159                       # number of demand (read+write) accesses
system.cpu.icache.demand_accesses::total      4635182                       # number of demand (read+write) accesses
system.cpu.icache.overall_accesses::.cpu.inst           23                       # number of overall (read+write) accesses
system.cpu.icache.overall_accesses::.switch_cpus.inst      4635159                       # number of overall (read+write) accesses
system.cpu.icache.overall_accesses::total      4635182                       # number of overall (read+write) accesses
system.cpu.icache.demand_miss_rate::.cpu.inst     0.086957                       # miss rate for demand accesses
system.cpu.icache.demand_miss_rate::.switch_cpus.inst     0.000024                       # miss rate for demand accesses
system.cpu.icache.demand_miss_rate::total     0.000024                       # miss rate for demand accesses
system.cpu.icache.overall_miss_rate::.cpu.inst     0.086957                       # miss rate for overall accesses
system.cpu.icache.overall_miss_rate::.switch_cpus.inst     0.000024                       # miss rate for overall accesses
system.cpu.icache.overall_miss_rate::total     0.000024                       # miss rate for overall accesses
system.cpu.icache.demand_avg_miss_latency::.switch_cpus.inst 68698.172727                       # average overall miss latency
system.cpu.icache.demand_avg_miss_latency::total 67471.419643                       # average overall miss latency
system.cpu.icache.overall_avg_miss_latency::.switch_cpus.inst 68698.172727                       # average overall miss latency
system.cpu.icache.overall_avg_miss_latency::total 67471.419643                       # average overall miss latency
system.cpu.icache.blocked_cycles::no_mshrs         3476                       # number of cycles access was blocked
system.cpu.icache.blocked_cycles::no_targets            0                       # number of cycles access was blocked
system.cpu.icache.blocked::no_mshrs                30                       # number of cycles access was blocked
system.cpu.icache.blocked::no_targets               0                       # number of cycles access was blocked
system.cpu.icache.avg_blocked_cycles::no_mshrs   115.866667                       # average number of cycles each access was blocked
system.cpu.icache.avg_blocked_cycles::no_targets          nan                       # average number of cycles each access was blocked
system.cpu.icache.demand_mshr_hits::.switch_cpus.inst           21                       # number of demand (read+write) MSHR hits
system.cpu.icache.demand_mshr_hits::total           21                       # number of demand (read+write) MSHR hits
system.cpu.icache.overall_mshr_hits::.switch_cpus.inst           21                       # number of overall MSHR hits
system.cpu.icache.overall_mshr_hits::total           21                       # number of overall MSHR hits
system.cpu.icache.demand_mshr_misses::.switch_cpus.inst           89                       # number of demand (read+write) MSHR misses
system.cpu.icache.demand_mshr_misses::total           89                       # number of demand (read+write) MSHR misses
system.cpu.icache.overall_mshr_misses::.switch_cpus.inst           89                       # number of overall MSHR misses
system.cpu.icache.overall_mshr_misses::total           89                       # number of overall MSHR misses
system.cpu.icache.demand_mshr_miss_latency::.switch_cpus.inst      6521999                       # number of demand (read+write) MSHR miss cycles
system.cpu.icache.demand_mshr_miss_latency::total      6521999                       # number of demand (read+write) MSHR miss cycles
system.cpu.icache.overall_mshr_miss_latency::.switch_cpus.inst      6521999                       # number of overall MSHR miss cycles
system.cpu.icache.overall_mshr_miss_latency::total      6521999                       # number of overall MSHR miss cycles
system.cpu.icache.demand_mshr_miss_rate::.switch_cpus.inst     0.000019                       # mshr miss rate for demand accesses
system.cpu.icache.demand_mshr_miss_rate::total     0.000019                       # mshr miss rate for demand accesses
system.cpu.icache.overall_mshr_miss_rate::.switch_cpus.inst     0.000019                       # mshr miss rate for overall accesses
system.cpu.icache.overall_mshr_miss_rate::total     0.000019                       # mshr miss rate for overall accesses
system.cpu.icache.demand_avg_mshr_miss_latency::.switch_cpus.inst 73280.887640                       # average overall mshr miss latency
system.cpu.icache.demand_avg_mshr_miss_latency::total 73280.887640                       # average overall mshr miss latency
system.cpu.icache.overall_avg_mshr_miss_latency::.switch_cpus.inst 73280.887640                       # average overall mshr miss latency
system.cpu.icache.overall_avg_mshr_miss_latency::total 73280.887640                       # average overall mshr miss latency
system.cpu.icache.replacements                      0                       # number of replacements
system.cpu.icache.ReadReq_hits::.cpu.inst           21                       # number of ReadReq hits
system.cpu.icache.ReadReq_hits::.switch_cpus.inst      4635049                       # number of ReadReq hits
system.cpu.icache.ReadReq_hits::total         4635070                       # number of ReadReq hits
system.cpu.icache.ReadReq_misses::.cpu.inst            2                       # number of ReadReq misses
system.cpu.icache.ReadReq_misses::.switch_cpus.inst          110                       # number of ReadReq misses
system.cpu.icache.ReadReq_misses::total           112                       # number of ReadReq misses
system.cpu.icache.ReadReq_miss_latency::.switch_cpus.inst      7556799                       # number of ReadReq miss cycles
system.cpu.icache.ReadReq_miss_latency::total      7556799                       # number of ReadReq miss cycles
system.cpu.icache.ReadReq_accesses::.cpu.inst           23                       # number of ReadReq accesses(hits+misses)
system.cpu.icache.ReadReq_accesses::.switch_cpus.inst      4635159                       # number of ReadReq accesses(hits+misses)
system.cpu.icache.ReadReq_accesses::total      4635182                       # number of ReadReq accesses(hits+misses)
system.cpu.icache.ReadReq_miss_rate::.cpu.inst     0.086957                       # miss rate for ReadReq accesses
system.cpu.icache.ReadReq_miss_rate::.switch_cpus.inst     0.000024                       # miss rate for ReadReq accesses
system.cpu.icache.ReadReq_miss_rate::total     0.000024                       # miss rate for ReadReq accesses
system.cpu.icache.ReadReq_avg_miss_latency::.switch_cpus.inst 68698.172727                       # average ReadReq miss latency
system.cpu.icache.ReadReq_avg_miss_latency::total 67471.419643                       # average ReadReq miss latency
system.cpu.icache.ReadReq_mshr_hits::.switch_cpus.inst           21                       # number of ReadReq MSHR hits
system.cpu.icache.ReadReq_mshr_hits::total           21                       # number of ReadReq MSHR hits
system.cpu.icache.ReadReq_mshr_misses::.switch_cpus.inst           89                       # number of ReadReq MSHR misses
system.cpu.icache.ReadReq_mshr_misses::total           89                       # number of ReadReq MSHR misses
system.cpu.icache.ReadReq_mshr_miss_latency::.switch_cpus.inst      6521999                       # number of ReadReq MSHR miss cycles
system.cpu.icache.ReadReq_mshr_miss_latency::total      6521999                       # number of ReadReq MSHR miss cycles
system.cpu.icache.ReadReq_mshr_miss_rate::.switch_cpus.inst     0.000019                       # mshr miss rate for ReadReq accesses
system.cpu.icache.ReadReq_mshr_miss_rate::total     0.000019                       # mshr miss rate for ReadReq accesses
system.cpu.icache.ReadReq_avg_mshr_miss_latency::.switch_cpus.inst 73280.887640                       # average ReadReq mshr miss latency
system.cpu.icache.ReadReq_avg_mshr_miss_latency::total 73280.887640                       # average ReadReq mshr miss latency
system.cpu.icache.power_state.pwrStateResidencyTicks::UNDEFINED 264114986800                       # Cumulative time (in ticks) in various power states
system.cpu.icache.tags.tagsinuse            88.602268                       # Cycle average of tags in use
system.cpu.icache.tags.total_refs                   1                       # Total number of references to valid blocks.
system.cpu.icache.tags.sampled_refs                 1                       # Sample count of references to valid blocks.
system.cpu.icache.tags.avg_refs                     1                       # Average number of references to valid blocks.
system.cpu.icache.tags.warmup_cycle      259851498800                       # Cycle when the warmup percentage was hit.
system.cpu.icache.tags.occ_blocks::.cpu.inst     1.999999                       # Average occupied blocks per requestor
system.cpu.icache.tags.occ_blocks::.switch_cpus.inst    86.602270                       # Average occupied blocks per requestor
system.cpu.icache.tags.occ_percent::.cpu.inst     0.003906                       # Average percentage of cache occupancy
system.cpu.icache.tags.occ_percent::.switch_cpus.inst     0.169145                       # Average percentage of cache occupancy
system.cpu.icache.tags.occ_percent::total     0.173051                       # Average percentage of cache occupancy
system.cpu.icache.tags.occ_task_id_blocks::1024           90                       # Occupied blocks per task id
system.cpu.icache.tags.age_task_id_blocks_1024::3           90                       # Occupied blocks per task id
system.cpu.icache.tags.occ_task_id_percent::1024     0.175781                       # Percentage of cache occupancy per task id
system.cpu.icache.tags.tag_accesses          37081547                       # Number of tag accesses
system.cpu.icache.tags.data_accesses         37081547                       # Number of data accesses
system.cpu.icache.tags.power_state.pwrStateResidencyTicks::UNDEFINED 264114986800                       # Cumulative time (in ticks) in various power states
system.cpu.itb.instHits                             0                       # ITB inst hits
system.cpu.itb.instMisses                           0                       # ITB inst misses
system.cpu.itb.readHits                             0                       # DTB read hits
system.cpu.itb.readMisses                           0                       # DTB read misses
system.cpu.itb.writeHits                            0                       # DTB write hits
system.cpu.itb.writeMisses                          0                       # DTB write misses
system.cpu.itb.inserts                              0                       # Number of times an entry is inserted into the TLB
system.cpu.itb.flushTlb                             2                       # Number of times complete TLB was flushed
system.cpu.itb.flushTlbMva                          0                       # Number of times TLB was flushed by MVA
system.cpu.itb.flushTlbMvaAsid                      0                       # Number of times TLB was flushed by MVA & ASID
system.cpu.itb.flushTlbAsid                         0                       # Number of times TLB was flushed by ASID
system.cpu.itb.flushedEntries                       0                       # Number of entries that have been flushed from TLB
system.cpu.itb.alignFaults                          0                       # Number of TLB faults due to alignment restrictions
system.cpu.itb.prefetchFaults                       0                       # Number of TLB faults due to prefetch
system.cpu.itb.domainFaults                         0                       # Number of TLB faults due to domain restrictions
system.cpu.itb.permsFaults                          0                       # Number of TLB faults due to permissions restrictions
system.cpu.itb.readAccesses                         0                       # DTB read accesses
system.cpu.itb.writeAccesses                        0                       # DTB write accesses
system.cpu.itb.instAccesses                         0                       # ITB inst accesses
system.cpu.itb.hits                                 0                       # Total TLB (inst and data) hits
system.cpu.itb.misses                               0                       # Total TLB (inst and data) misses
system.cpu.itb.accesses                             0                       # Total TLB (inst and data) accesses
system.cpu.itb.stage2_mmu.stage2_tlb.instHits            0                       # ITB inst hits
system.cpu.itb.stage2_mmu.stage2_tlb.instMisses            0                       # ITB inst misses
system.cpu.itb.stage2_mmu.stage2_tlb.readHits            0                       # DTB read hits
system.cpu.itb.stage2_mmu.stage2_tlb.readMisses            0                       # DTB read misses
system.cpu.itb.stage2_mmu.stage2_tlb.writeHits            0                       # DTB write hits
system.cpu.itb.stage2_mmu.stage2_tlb.writeMisses            0                       # DTB write misses
system.cpu.itb.stage2_mmu.stage2_tlb.inserts            0                       # Number of times an entry is inserted into the TLB
system.cpu.itb.stage2_mmu.stage2_tlb.flushTlb            0                       # Number of times complete TLB was flushed
system.cpu.itb.stage2_mmu.stage2_tlb.flushTlbMva            0                       # Number of times TLB was flushed by MVA
system.cpu.itb.stage2_mmu.stage2_tlb.flushTlbMvaAsid            0                       # Number of times TLB was flushed by MVA & ASID
system.cpu.itb.stage2_mmu.stage2_tlb.flushTlbAsid            0                       # Number of times TLB was flushed by ASID
system.cpu.itb.stage2_mmu.stage2_tlb.flushedEntries            0                       # Number of entries that have been flushed from TLB
system.cpu.itb.stage2_mmu.stage2_tlb.alignFaults            0                       # Number of TLB faults due to alignment restrictions
system.cpu.itb.stage2_mmu.stage2_tlb.prefetchFaults            0                       # Number of TLB faults due to prefetch
system.cpu.itb.stage2_mmu.stage2_tlb.domainFaults            0                       # Number of TLB faults due to domain restrictions
system.cpu.itb.stage2_mmu.stage2_tlb.permsFaults            0                       # Number of TLB faults due to permissions restrictions
system.cpu.itb.stage2_mmu.stage2_tlb.readAccesses            0                       # DTB read accesses
system.cpu.itb.stage2_mmu.stage2_tlb.writeAccesses            0                       # DTB write accesses
system.cpu.itb.stage2_mmu.stage2_tlb.instAccesses            0                       # ITB inst accesses
system.cpu.itb.stage2_mmu.stage2_tlb.hits            0                       # Total TLB (inst and data) hits
system.cpu.itb.stage2_mmu.stage2_tlb.misses            0                       # Total TLB (inst and data) misses
system.cpu.itb.stage2_mmu.stage2_tlb.accesses            0                       # Total TLB (inst and data) accesses
system.cpu.itb.stage2_mmu.stage2_tlb.walker.walks            0                       # Table walker walks requested
system.cpu.itb.stage2_mmu.stage2_tlb.walker.requestOrigin_Requested::Data            0                       # Table walker requests started/completed, data/inst
system.cpu.itb.stage2_mmu.stage2_tlb.walker.requestOrigin_Requested::Inst            0                       # Table walker requests started/completed, data/inst
system.cpu.itb.stage2_mmu.stage2_tlb.walker.requestOrigin_Requested::total            0                       # Table walker requests started/completed, data/inst
system.cpu.itb.stage2_mmu.stage2_tlb.walker.requestOrigin_Completed::Data            0                       # Table walker requests started/completed, data/inst
system.cpu.itb.stage2_mmu.stage2_tlb.walker.requestOrigin_Completed::Inst            0                       # Table walker requests started/completed, data/inst
system.cpu.itb.stage2_mmu.stage2_tlb.walker.requestOrigin_Completed::total            0                       # Table walker requests started/completed, data/inst
system.cpu.itb.stage2_mmu.stage2_tlb.walker.requestOrigin::total            0                       # Table walker requests started/completed, data/inst
system.cpu.itb.stage2_mmu.stage2_tlb.walker.power_state.pwrStateResidencyTicks::UNDEFINED 264114986800                       # Cumulative time (in ticks) in various power states
system.cpu.itb.walker.walks                         0                       # Table walker walks requested
system.cpu.itb.walker.requestOrigin_Requested::Data            0                       # Table walker requests started/completed, data/inst
system.cpu.itb.walker.requestOrigin_Requested::Inst            0                       # Table walker requests started/completed, data/inst
[...]
system.switch_cpus.fetch.pendingTrapStallCycles           43                       # Number of stall cycles due to pending traps
system.switch_cpus.fetch.icacheWaitRetryStallCycles          244                       # Number of stall cycles due to full MSHR
system.switch_cpus.fetch.cacheLines          22266117                       # Number of cache lines fetched
system.switch_cpus.fetch.icacheSquashes           166                       # Number of outstanding Icache misses that were squashed
system.switch_cpus.fetch.nisnDist::samples     72477549                       # Number of instructions fetched each cycle (Total)
system.switch_cpus.fetch.nisnDist::mean      2.451235                       # Number of instructions fetched each cycle (Total)
system.switch_cpus.fetch.nisnDist::stdev     2.990629                       # Number of instructions fetched each cycle (Total)
system.switch_cpus.fetch.nisnDist::underflows            0      0.00%      0.00% # Number of instructions fetched each cycle (Total)
system.switch_cpus.fetch.nisnDist::0         35879370     49.50%     49.50% # Number of instructions fetched each cycle (Total)
system.switch_cpus.fetch.nisnDist::1          3010422      4.15%     53.66% # Number of instructions fetched each cycle (Total)
system.switch_cpus.fetch.nisnDist::2          5871318      8.10%     61.76% # Number of instructions fetched each cycle (Total)
system.switch_cpus.fetch.nisnDist::3          3805842      5.25%     67.01% # Number of instructions fetched each cycle (Total)
system.switch_cpus.fetch.nisnDist::4          5479868      7.56%     74.57% # Number of instructions fetched each cycle (Total)
system.switch_cpus.fetch.nisnDist::5          2845794      3.93%     78.50% # Number of instructions fetched each cycle (Total)
system.switch_cpus.fetch.nisnDist::6          3396119      4.69%     83.18% # Number of instructions fetched each cycle (Total)
system.switch_cpus.fetch.nisnDist::7          2546734      3.51%     86.70% # Number of instructions fetched each cycle (Total)
system.switch_cpus.fetch.nisnDist::8          9642082     13.30%    100.00% # Number of instructions fetched each cycle (Total)
system.switch_cpus.fetch.nisnDist::overflows            0      0.00%    100.00% # Number of instructions fetched each cycle (Total)
system.switch_cpus.fetch.nisnDist::min_value            0                       # Number of instructions fetched each cycle (Total)
system.switch_cpus.fetch.nisnDist::max_value            8                       # Number of instructions fetched each cycle (Total)
system.switch_cpus.fetch.nisnDist::total     72477549                       # Number of instructions fetched each cycle (Total)
system.switch_cpus.fetch.branchRate          0.382678                       # Number of branch fetches per cycle
system.switch_cpus.fetch.rate                2.309657                       # Number of inst fetches per cycle
system.switch_cpus.itb.instHits                     0                       # ITB inst hits
system.switch_cpus.itb.instMisses                   0                       # ITB inst misses
system.switch_cpus.itb.readHits                     0                       # DTB read hits
system.switch_cpus.itb.readMisses                   0                       # DTB read misses
system.switch_cpus.itb.writeHits                    0                       # DTB write hits
system.switch_cpus.itb.writeMisses                  0                       # DTB write misses
system.switch_cpus.itb.inserts                      0                       # Number of times an entry is inserted into the TLB
system.switch_cpus.itb.flushTlb                     2                       # Number of times complete TLB was flushed
system.switch_cpus.itb.flushTlbMva                  0                       # Number of times TLB was flushed by MVA
system.switch_cpus.itb.flushTlbMvaAsid              0                       # Number of times TLB was flushed by MVA & ASID
system.switch_cpus.itb.flushTlbAsid                 0                       # Number of times TLB was flushed by ASID
system.switch_cpus.itb.flushedEntries               0                       # Number of entries that have been flushed from TLB
system.switch_cpus.itb.alignFaults                  0                       # Number of TLB faults due to alignment restrictions
system.switch_cpus.itb.prefetchFaults               0                       # Number of TLB faults due to prefetch
system.switch_cpus.itb.domainFaults                 0                       # Number of TLB faults due to domain restrictions
system.switch_cpus.itb.permsFaults                  0                       # Number of TLB faults due to permissions restrictions
system.switch_cpus.itb.readAccesses                 0                       # DTB read accesses
system.switch_cpus.itb.writeAccesses                0                       # DTB write accesses
system.switch_cpus.itb.instAccesses                 0                       # ITB inst accesses
system.switch_cpus.itb.hits                         0                       # Total TLB (inst and data) hits
system.switch_cpus.itb.misses                       0                       # Total TLB (inst and data) misses
system.switch_cpus.itb.accesses                     0                       # Total TLB (inst and data) accesses
system.switch_cpus.itb.stage2_mmu.stage2_tlb.instHits            0                       # ITB inst hits
system.switch_cpus.itb.stage2_mmu.stage2_tlb.instMisses            0                       # ITB inst misses
system.switch_cpus.itb.stage2_mmu.stage2_tlb.readHits            0                       # DTB read hits
system.switch_cpus.itb.stage2_mmu.stage2_tlb.readMisses            0                       # DTB read misses
system.switch_cpus.itb.stage2_mmu.stage2_tlb.writeHits            0                       # DTB write hits
system.switch_cpus.itb.stage2_mmu.stage2_tlb.writeMisses            0                       # DTB write misses
system.switch_cpus.itb.stage2_mmu.stage2_tlb.inserts            0                       # Number of times an entry is inserted into the TLB
system.switch_cpus.itb.stage2_mmu.stage2_tlb.flushTlb            0                       # Number of times complete TLB was flushed
system.switch_cpus.itb.stage2_mmu.stage2_tlb.flushTlbMva            0                       # Number of times TLB was flushed by MVA
system.switch_cpus.itb.stage2_mmu.stage2_tlb.flushTlbMvaAsid            0                       # Number of times TLB was flushed by MVA & ASID
system.switch_cpus.itb.stage2_mmu.stage2_tlb.flushTlbAsid            0                       # Number of times TLB was flushed by ASID
system.switch_cpus.itb.stage2_mmu.stage2_tlb.flushedEntries            0                       # Number of entries that have been flushed from TLB
system.switch_cpus.itb.stage2_mmu.stage2_tlb.alignFaults            0                       # Number of TLB faults due to alignment restrictions
system.switch_cpus.itb.stage2_mmu.stage2_tlb.prefetchFaults            0                       # Number of TLB faults due to prefetch
system.switch_cpus.itb.stage2_mmu.stage2_tlb.domainFaults            0                       # Number of TLB faults due to domain restrictions
system.switch_cpus.itb.stage2_mmu.stage2_tlb.permsFaults            0                       # Number of TLB faults due to permissions restrictions
system.switch_cpus.itb.stage2_mmu.stage2_tlb.readAccesses            0                       # DTB read accesses
system.switch_cpus.itb.stage2_mmu.stage2_tlb.writeAccesses            0                       # DTB write accesses
system.switch_cpus.itb.stage2_mmu.stage2_tlb.instAccesses            0                       # ITB inst accesses
system.switch_cpus.itb.stage2_mmu.stage2_tlb.hits            0                       # Total TLB (inst and data) hits
system.switch_cpus.itb.stage2_mmu.stage2_tlb.misses            0                       # Total TLB (inst and data) misses
system.switch_cpus.itb.stage2_mmu.stage2_tlb.accesses            0                       # Total TLB (inst and data) accesses
system.switch_cpus.itb.stage2_mmu.stage2_tlb.walker.walks            0                       # Table walker walks requested
system.switch_cpus.itb.stage2_mmu.stage2_tlb.walker.requestOrigin_Requested::Data            0                       # Table walker requests started/completed, data/inst
system.switch_cpus.itb.stage2_mmu.stage2_tlb.walker.requestOrigin_Requested::Inst            0                       # Table walker requests started/completed, data/inst
system.switch_cpus.itb.stage2_mmu.stage2_tlb.walker.requestOrigin_Requested::total            0                       # Table walker requests started/completed, data/inst
system.switch_cpus.itb.stage2_mmu.stage2_tlb.walker.requestOrigin_Completed::Data            0                       # Table walker requests started/completed, data/inst
system.switch_cpus.itb.stage2_mmu.stage2_tlb.walker.requestOrigin_Completed::Inst            0                       # Table walker requests started/completed, data/inst
system.switch_cpus.itb.stage2_mmu.stage2_tlb.walker.requestOrigin_Completed::total            0                       # Table walker requests started/completed, data/inst
system.switch_cpus.itb.stage2_mmu.stage2_tlb.walker.requestOrigin::total            0                       # Table walker requests started/completed, data/inst
system.switch_cpus.itb.stage2_mmu.stage2_tlb.walker.power_state.pwrStateResidencyTicks::UNDEFINED  28994060400                       # Cumulative time (in ticks) in various power states
system.switch_cpus.itb.walker.walks                 0                       # Table walker walks requested
system.switch_cpus.itb.walker.requestOrigin_Requested::Data            0                       # Table walker requests started/completed, data/inst
system.switch_cpus.itb.walker.requestOrigin_Requested::Inst            0                       # Table walker requests started/completed, data/inst
system.switch_cpus.itb.walker.requestOrigin_Requested::total            0                       # Table walker requests started/completed, data/inst
system.switch_cpus.itb.walker.requestOrigin_Completed::Data            0                       # Table walker requests started/completed, data/inst
system.switch_cpus.itb.walker.requestOrigin_Completed::Inst            0                       # Table walker requests started/completed, data/inst
system.switch_cpus.itb.walker.requestOrigin_Completed::total            0                       # Table walker requests started/completed, data/inst
system.switch_cpus.itb.walker.requestOrigin::total            0                       # Table walker requests started/completed, data/inst
system.switch_cpus.itb.walker.power_state.pwrStateResidencyTicks::UNDEFINED  28994060400                       # Cumulative time (in ticks) in various power states
system.switch_cpus.lsq0.forwLoads            15495223                       # Number of loads that had data forwarded from stores
system.switch_cpus.lsq0.squashedLoads        13549729                       # Number of loads squashed
system.switch_cpus.lsq0.ignoredResponses          233                       # Number of memory responses ignored because the instruction is squashed
system.switch_cpus.lsq0.memOrderViolation         4914                       # Number of memory ordering violations
system.switch_cpus.lsq0.squashedStores        6679386                       # Number of stores squashed
system.switch_cpus.lsq0.rescheduledLoads       148254                       # Number of loads that were rescheduled
system.switch_cpus.lsq0.blockedByCache            324                       # Number of times an access to memory failed due to the cache being blocked
system.switch_cpus.power_state.pwrStateResidencyTicks::OFF  28994060400                       # Cumulative time (in ticks) in various power states
system.switch_cpus.rename.squashCycles         602020                       # Number of cycles rename is squashing
system.switch_cpus.rename.idleCycles         10375635                       # Number of cycles rename is idle
system.switch_cpus.rename.blockCycles        27942516                       # Number of cycles rename is blocking
system.switch_cpus.rename.serializeStallCycles        35537                       # count of cycles rename stalledfor serializing inst
system.switch_cpus.rename.runCycles          19988743                       # Number of cycles rename is running
system.switch_cpus.rename.unblockCycles      13533098                       # Number of cycles rename is unblocking
system.switch_cpus.rename.renamedInsts      156859270                       # Number of instructions processed by rename
system.switch_cpus.rename.squashedInsts       2091553                       # Number of squashed instructions processed by rename
system.switch_cpus.rename.ROBFullEvents          4776                       # Number of times rename has blocked due to ROB full
system.switch_cpus.rename.IQFullEvents        5313443                       # Number of times rename has blocked due to IQ full
system.switch_cpus.rename.SQFullEvents          16370                       # Number of times rename has blocked due to SQ full
system.switch_cpus.rename.fullRegistersEvents      7911142                       # Number of times there has been no free registers
system.switch_cpus.rename.renamedOperands    173826775                       # Number of destination operands rename has renamed
system.switch_cpus.rename.lookups           228560406                       # Number of register rename lookups that rename has made
system.switch_cpus.rename.intLookups        171768124                       # Number of integer rename lookups
system.switch_cpus.rename.vecLookups           108327                       # Number of vector rename lookups
system.switch_cpus.rename.committedMaps     117942678                       # Number of HB maps that are committed
system.switch_cpus.rename.undoneMaps         55884055                       # Number of HB maps that are undone due to squashing
system.switch_cpus.rename.serializing            2185                       # count of serializing insts renamed
system.switch_cpus.rename.tempSerializing           40                       # count of temporary serializing insts renamed
system.switch_cpus.rename.skidInsts          36764785                       # count of insts added to the skid buffer
system.switch_cpus.rob.reads                191410287                       # The number of ROB reads
system.switch_cpus.rob.writes               317915836                       # The number of ROB writes
system.switch_cpus.thread_0.numInsts        100000003                       # Number of Instructions committed
system.switch_cpus.thread_0.numOps          104386834                       # Number of Ops committed
system.switch_cpus.thread_0.numMemRefs              0                       # Number of Memory References
system.tol2bus.trans_dist::ReadResp           1234819                       # Transaction distribution
system.tol2bus.trans_dist::WritebackDirty       681624                       # Transaction distribution
system.tol2bus.trans_dist::WritebackClean       622930                       # Transaction distribution
system.tol2bus.trans_dist::CleanEvict          109300                       # Transaction distribution
system.tol2bus.trans_dist::HardPFReq           105181                       # Transaction distribution
system.tol2bus.trans_dist::HardPFResp               1                       # Transaction distribution
system.tol2bus.trans_dist::UpgradeReq               8                       # Transaction distribution
system.tol2bus.trans_dist::UpgradeResp              8                       # Transaction distribution
system.tol2bus.trans_dist::ReadExReq            51434                       # Transaction distribution
system.tol2bus.trans_dist::ReadExResp           51434                       # Transaction distribution
system.tol2bus.trans_dist::ReadCleanReq           111                       # Transaction distribution
system.tol2bus.trans_dist::ReadSharedReq      1234710                       # Transaction distribution
system.tol2bus.pkt_count_system.cpu.icache.mem_side_port::system.l2.cpu_side_port          208                       # Packet count per connected requestor and responder (bytes)
system.tol2bus.pkt_count_system.cpu.dcache.mem_side_port::system.l2.cpu_side_port      3858445                       # Packet count per connected requestor and responder (bytes)
system.tol2bus.pkt_count::total               3858653                       # Packet count per connected requestor and responder (bytes)
system.tol2bus.pkt_size_system.cpu.icache.mem_side_port::system.l2.cpu_side_port        12416                       # Cumulative packet size per connected requestor and responder (bytes)
system.tol2bus.pkt_size_system.cpu.dcache.mem_side_port::system.l2.cpu_side_port    329252480                       # Cumulative packet size per connected requestor and responder (bytes)
system.tol2bus.pkt_size::total              329264896                       # Cumulative packet size per connected requestor and responder (bytes)
system.tol2bus.snoops                          232908                       # Total snoops (count)
system.tol2bus.snoopTraffic                   2358656                       # Total snoop traffic (bytes)
system.tol2bus.snoop_fanout::samples          1519156                       # Request fanout histogram
system.tol2bus.snoop_fanout::mean            0.001779                       # Request fanout histogram
system.tol2bus.snoop_fanout::stdev           0.042136                       # Request fanout histogram
system.tol2bus.snoop_fanout::underflows             0      0.00%      0.00% # Request fanout histogram
system.tol2bus.snoop_fanout::0                1516454     99.82%     99.82% # Request fanout histogram
system.tol2bus.snoop_fanout::1                   2702      0.18%    100.00% # Request fanout histogram
system.tol2bus.snoop_fanout::2                      0      0.00%    100.00% # Request fanout histogram
system.tol2bus.snoop_fanout::3                      0      0.00%    100.00% # Request fanout histogram
system.tol2bus.snoop_fanout::4                      0      0.00%    100.00% # Request fanout histogram
system.tol2bus.snoop_fanout::overflows              0      0.00%    100.00% # Request fanout histogram
system.tol2bus.snoop_fanout::min_value              0                       # Request fanout histogram
system.tol2bus.snoop_fanout::max_value              1                       # Request fanout histogram
system.tol2bus.snoop_fanout::total            1519156                       # Request fanout histogram
system.tol2bus.power_state.pwrStateResidencyTicks::UNDEFINED  28994060400                       # Cumulative time (in ticks) in various power states
system.tol2bus.reqLayer0.occupancy         3086789200                       # Layer occupancy (ticks)
system.tol2bus.reqLayer0.utilization             10.6                       # Layer utilization (%)
system.tol2bus.respLayer0.occupancy            222000                       # Layer occupancy (ticks)
system.tol2bus.respLayer0.utilization             0.0                       # Layer utilization (%)
system.tol2bus.respLayer1.occupancy        2572287200                       # Layer occupancy (ticks)
system.tol2bus.respLayer1.utilization             8.9                       # Layer utilization (%)
system.tol2bus.snoopLayer0.occupancy             2001                       # Layer occupancy (ticks)
system.tol2bus.snoopLayer0.utilization            0.0                       # Layer utilization (%)
system.voltage_domain.voltage                       1                       # Voltage in Volts

---------- End Simulation Statistics   ----------
