
---------- Begin Simulation Statistics ----------
final_tick                               570228122512                       # Number of ticks from beginning of simulation (restored from checkpoints and never reset)
host_inst_rate                                 311831                       # Simulator instruction rate (inst/s)
host_mem_usage                               16965264                       # Number of bytes of host memory used
host_op_rate                                   311825                       # Simulator op (including micro ops) rate (op/s)
host_seconds                                     3.21                       # Real time elapsed on the host
host_tick_rate                              137868403                       # Simulator tick rate (ticks/s)
sim_freq                                 1000000000000                       # Frequency of simulated ticks
sim_insts                                     1000031                       # Number of instructions simulated
sim_ops                                       1000031                       # Number of ops (including micro ops) simulated
sim_seconds                                  0.000442                       # Number of seconds simulated
sim_ticks                                   442148512                       # Number of ticks simulated
system.cpu.Branches                                 2                       # Number of branches fetched
system.cpu.committedInsts                          30                       # Number of instructions committed
system.cpu.committedOps                            30                       # Number of ops (including micro ops) committed
system.cpu.idle_fraction                            0                       # Percentage of idle cycles
system.cpu.not_idle_fraction                        1                       # Percentage of non-idle cycles
system.cpu.numCycles                               30                       # number of cpu cycles simulated
system.cpu.numWorkItemsCompleted                    0                       # number of work items this cpu completed
system.cpu.numWorkItemsStarted                      0                       # number of work items this cpu started
system.cpu.num_busy_cycles                         30                       # Number of busy cycles
system.cpu.num_cc_register_reads                    3                       # number of times the CC registers were read
system.cpu.num_cc_register_writes                   3                       # number of times the CC registers were written
system.cpu.num_conditional_control_insts            1                       # number of instructions that are conditional controls
system.cpu.num_fp_alu_accesses                      0                       # Number of float alu accesses
system.cpu.num_fp_insts                             0                       # number of float instructions
system.cpu.num_fp_register_reads                    0                       # number of times the floating registers were read
system.cpu.num_fp_register_writes                   0                       # number of times the floating registers were written
system.cpu.num_func_calls                           0                       # number of times a function call or return occured
system.cpu.num_idle_cycles                          0                       # Number of idle cycles
system.cpu.num_int_alu_accesses                    28                       # Number of integer alu accesses
system.cpu.num_int_insts                           28                       # number of integer instructions
system.cpu.num_int_register_reads                  32                       # number of times the integer registers were read
system.cpu.num_int_register_writes                 25                       # number of times the integer registers were written
system.cpu.num_load_insts                          10                       # Number of load instructions
system.cpu.num_mem_refs                            13                       # number of memory refs
system.cpu.num_store_insts                          3                       # Number of store instructions
system.cpu.num_vec_alu_accesses                     0                       # Number of vector alu accesses
system.cpu.num_vec_insts                            0                       # number of vector instructions
system.cpu.num_vec_register_reads                   0                       # number of times the vector registers were read
system.cpu.num_vec_register_writes                  0                       # number of times the vector registers were written
system.cpu.op_class::No_OpClass                     0      0.00%      0.00% # Class of executed instruction
system.cpu.op_class::IntAlu                        17     56.67%     56.67% # Class of executed instruction
system.cpu.op_class::IntMult                        0      0.00%     56.67% # Class of executed instruction
system.cpu.op_class::IntDiv                         0      0.00%     56.67% # Class of executed instruction
system.cpu.op_class::FloatAdd                       0      0.00%     56.67% # Class of executed instruction
system.cpu.op_class::FloatCmp                       0      0.00%     56.67% # Class of executed instruction
system.cpu.op_class::FloatCvt                       0      0.00%     56.67% # Class of executed instruction
system.cpu.op_class::FloatMult                      0      0.00%     56.67% # Class of executed instruction
system.cpu.op_class::FloatMultAcc                   0      0.00%     56.67% # Class of executed instruction
system.cpu.op_class::FloatDiv                       0      0.00%     56.67% # Class of executed instruction
system.cpu.op_class::FloatMisc                      0      0.00%     56.67% # Class of executed instruction
system.cpu.op_class::FloatSqrt                      0      0.00%     56.67% # Class of executed instruction
system.cpu.op_class::SimdAdd                        0      0.00%     56.67% # Class of executed instruction
system.cpu.op_class::SimdAddAcc                     0      0.00%     56.67% # Class of executed instruction
system.cpu.op_class::SimdAlu                        0      0.00%     56.67% # Class of executed instruction
system.cpu.op_class::SimdCmp                        0      0.00%     56.67% # Class of executed instruction
system.cpu.op_class::SimdCvt                        0      0.00%     56.67% # Class of executed instruction
system.cpu.op_class::SimdMisc                       0      0.00%     56.67% # Class of executed instruction
system.cpu.op_class::SimdMult                       0      0.00%     56.67% # Class of executed instruction
system.cpu.op_class::SimdMultAcc                    0      0.00%     56.67% # Class of executed instruction
system.cpu.op_class::SimdShift                      0      0.00%     56.67% # Class of executed instruction
system.cpu.op_class::SimdShiftAcc                   0      0.00%     56.67% # Class of executed instruction
system.cpu.op_class::SimdDiv                        0      0.00%     56.67% # Class of executed instruction
system.cpu.op_class::SimdSqrt                       0      0.00%     56.67% # Class of executed instruction
system.cpu.op_class::SimdFloatAdd                   0      0.00%     56.67% # Class of executed instruction
system.cpu.op_class::SimdFloatAlu                   0      0.00%     56.67% # Class of executed instruction
system.cpu.op_class::SimdFloatCmp                   0      0.00%     56.67% # Class of executed instruction
system.cpu.op_class::SimdFloatCvt                   0      0.00%     56.67% # Class of executed instruction
system.cpu.op_class::SimdFloatDiv                   0      0.00%     56.67% # Class of executed instruction
system.cpu.op_class::SimdFloatMisc                  0      0.00%     56.67% # Class of executed instruction
system.cpu.op_class::SimdFloatMult                  0      0.00%     56.67% # Class of executed instruction
system.cpu.op_class::SimdFloatMultAcc               0      0.00%     56.67% # Class of executed instruction
system.cpu.op_class::SimdFloatSqrt                  0      0.00%     56.67% # Class of executed instruction
system.cpu.op_class::SimdReduceAdd                  0      0.00%     56.67% # Class of executed instruction
system.cpu.op_class::SimdReduceAlu                  0      0.00%     56.67% # Class of executed instruction
system.cpu.op_class::SimdReduceCmp                  0      0.00%     56.67% # Class of executed instruction
system.cpu.op_class::SimdFloatReduceAdd             0      0.00%     56.67% # Class of executed instruction
system.cpu.op_class::SimdFloatReduceCmp             0      0.00%     56.67% # Class of executed instruction
system.cpu.op_class::SimdAes                        0      0.00%     56.67% # Class of executed instruction
system.cpu.op_class::SimdAesMix                     0      0.00%     56.67% # Class of executed instruction
system.cpu.op_class::SimdSha1Hash                   0      0.00%     56.67% # Class of executed instruction
system.cpu.op_class::SimdSha1Hash2                  0      0.00%     56.67% # Class of executed instruction
system.cpu.op_class::SimdSha256Hash                 0      0.00%     56.67% # Class of executed instruction
system.cpu.op_class::SimdSha256Hash2                0      0.00%     56.67% # Class of executed instruction
system.cpu.op_class::SimdShaSigma2                  0      0.00%     56.67% # Class of executed instruction
system.cpu.op_class::SimdShaSigma3                  0      0.00%     56.67% # Class of executed instruction
system.cpu.op_class::SimdPredAlu                    0      0.00%     56.67% # Class of executed instruction
system.cpu.op_class::MemRead                       10     33.33%     90.00% # Class of executed instruction
system.cpu.op_class::MemWrite                       3     10.00%    100.00% # Class of executed instruction
system.cpu.op_class::FloatMemRead                   0      0.00%    100.00% # Class of executed instruction
system.cpu.op_class::FloatMemWrite                  0      0.00%    100.00% # Class of executed instruction
system.cpu.op_class::IprAccess                      0      0.00%    100.00% # Class of executed instruction
system.cpu.op_class::InstPrefetch                   0      0.00%    100.00% # Class of executed instruction
system.cpu.op_class::total                         30                       # Class of executed instruction
system.cpu.workload.numSyscalls                     0                       # Number of system calls
system.membus.snoop_filter.hit_multi_requests            0                       # Number of requests hitting in the snoop filter with multiple (>1) holders of the requested data.
system.membus.snoop_filter.hit_multi_snoops            0                       # Number of snoops hitting in the snoop filter with multiple (>1) holders of the requested data.
system.membus.snoop_filter.hit_single_requests            1                       # Number of requests hitting in the snoop filter with a single holder of the requested data.
system.membus.snoop_filter.hit_single_snoops            0                       # Number of snoops hitting in the snoop filter with a single holder of the requested data.
system.membus.snoop_filter.tot_requests          4980                       # Total number of requests made to the snoop filter.
system.membus.snoop_filter.tot_snoops               0                       # Total number of snoops made to the snoop filter.
system.switch_cpus.cc_regfile_reads            271062                       # number of cc regfile reads
system.switch_cpus.cc_regfile_writes           271200                       # number of cc regfile writes
system.switch_cpus.committedInsts             1000001                       # Number of Instructions Simulated
system.switch_cpus.committedOps               1000001                       # Number of Ops (including micro ops) Simulated
system.switch_cpus.cpi                       1.368848                       # CPI: Cycles Per Instruction
system.switch_cpus.cpi_total                 1.368848                       # CPI: Total CPI of All Threads
system.switch_cpus.idleCycles                     368                       # Total number of cycles that the CPU has spent unscheduled due to idling
system.switch_cpus.iew.branchMispredicts         1707                       # Number of branch mispredicts detected at execute
system.switch_cpus.iew.exec_branches            91651                       # Number of branches executed
system.switch_cpus.iew.exec_nop                     0                       # number of nop insts executed
system.switch_cpus.iew.exec_rate             0.759442                       # Inst execution rate
system.switch_cpus.iew.exec_refs               522109                       # number of memory reference insts executed
system.switch_cpus.iew.exec_stores              95467                       # Number of stores executed
system.switch_cpus.iew.exec_swp                     0                       # number of swp insts executed
system.switch_cpus.iew.iewBlockCycles          142262                       # Number of cycles IEW is blocking
system.switch_cpus.iew.iewDispLoadInsts        434026                       # Number of dispatched load instructions
system.switch_cpus.iew.iewDispNonSpecInsts            0                       # Number of dispatched non-speculative instructions
system.switch_cpus.iew.iewDispSquashedInsts           41                       # Number of squashed instructions skipped by dispatch
system.switch_cpus.iew.iewDispStoreInsts        98152                       # Number of dispatched store instructions
system.switch_cpus.iew.iewDispatchedInsts      1063391                       # Number of instructions dispatched to IQ
system.switch_cpus.iew.iewExecLoadInsts        426642                       # Number of load instructions executed
system.switch_cpus.iew.iewExecSquashedInsts         2150                       # Number of squashed instructions skipped in execute
system.switch_cpus.iew.iewExecutedInsts       1039562                       # Number of executed instructions
system.switch_cpus.iew.iewIQFullEvents           1294                       # Number of times the IQ has become full, causing a stall
system.switch_cpus.iew.iewIdleCycles                0                       # Number of cycles IEW is idle
system.switch_cpus.iew.iewLSQFullEvents        197382                       # Number of times the LSQ has become full, causing a stall
system.switch_cpus.iew.iewSquashCycles           1719                       # Number of cycles IEW is squashing
system.switch_cpus.iew.iewUnblockCycles        198976                       # Number of cycles IEW is unblocking
system.switch_cpus.iew.memOrderViolationEvents           26                       # Number of memory order violations
system.switch_cpus.iew.predictedNotTakenIncorrect          151                       # Number of branches that were predicted not taken incorrectly
system.switch_cpus.iew.predictedTakenIncorrect         1556                       # Number of branches that were predicted taken incorrectly
system.switch_cpus.iew.wb_consumers           1015405                       # num instructions consuming a value
system.switch_cpus.iew.wb_count               1035904                       # cumulative count of insts written-back
system.switch_cpus.iew.wb_fanout             0.821398                       # average fanout of values written-back
system.switch_cpus.iew.wb_producers            834052                       # num instructions producing a value
system.switch_cpus.iew.wb_rate               0.756770                       # insts written-back per cycle
system.switch_cpus.iew.wb_sent                1037199                       # cumulative count of insts sent to commit
system.switch_cpus.int_regfile_reads          1135094                       # number of integer regfile reads
system.switch_cpus.int_regfile_writes          850174                       # number of integer regfile writes
system.switch_cpus.ipc                       0.730541                       # IPC: Instructions Per Cycle
system.switch_cpus.ipc_total                 0.730541                       # IPC: Total IPC of All Threads
system.switch_cpus.iq.FU_type_0::No_OpClass            0      0.00%      0.00% # Type of FU issued
system.switch_cpus.iq.FU_type_0::IntAlu        517804     49.71%     49.71% # Type of FU issued
system.switch_cpus.iq.FU_type_0::IntMult            0      0.00%     49.71% # Type of FU issued
system.switch_cpus.iq.FU_type_0::IntDiv             0      0.00%     49.71% # Type of FU issued
system.switch_cpus.iq.FU_type_0::FloatAdd            0      0.00%     49.71% # Type of FU issued
system.switch_cpus.iq.FU_type_0::FloatCmp            0      0.00%     49.71% # Type of FU issued
system.switch_cpus.iq.FU_type_0::FloatCvt            0      0.00%     49.71% # Type of FU issued
system.switch_cpus.iq.FU_type_0::FloatMult            0      0.00%     49.71% # Type of FU issued
system.switch_cpus.iq.FU_type_0::FloatMultAcc            0      0.00%     49.71% # Type of FU issued
system.switch_cpus.iq.FU_type_0::FloatDiv            0      0.00%     49.71% # Type of FU issued
system.switch_cpus.iq.FU_type_0::FloatMisc            0      0.00%     49.71% # Type of FU issued
system.switch_cpus.iq.FU_type_0::FloatSqrt            0      0.00%     49.71% # Type of FU issued
system.switch_cpus.iq.FU_type_0::SimdAdd            0      0.00%     49.71% # Type of FU issued
system.switch_cpus.iq.FU_type_0::SimdAddAcc            0      0.00%     49.71% # Type of FU issued
system.switch_cpus.iq.FU_type_0::SimdAlu            0      0.00%     49.71% # Type of FU issued
system.switch_cpus.iq.FU_type_0::SimdCmp            0      0.00%     49.71% # Type of FU issued
system.switch_cpus.iq.FU_type_0::SimdCvt            0      0.00%     49.71% # Type of FU issued
system.switch_cpus.iq.FU_type_0::SimdMisc            0      0.00%     49.71% # Type of FU issued
system.switch_cpus.iq.FU_type_0::SimdMult            0      0.00%     49.71% # Type of FU issued
system.switch_cpus.iq.FU_type_0::SimdMultAcc            0      0.00%     49.71% # Type of FU issued
system.switch_cpus.iq.FU_type_0::SimdShift            0      0.00%     49.71% # Type of FU issued
system.switch_cpus.iq.FU_type_0::SimdShiftAcc            0      0.00%     49.71% # Type of FU issued
system.switch_cpus.iq.FU_type_0::SimdDiv            0      0.00%     49.71% # Type of FU issued
system.switch_cpus.iq.FU_type_0::SimdSqrt            0      0.00%     49.71% # Type of FU issued
system.switch_cpus.iq.FU_type_0::SimdFloatAdd            0      0.00%     49.71% # Type of FU issued
system.switch_cpus.iq.FU_type_0::SimdFloatAlu            0      0.00%     49.71% # Type of FU issued
system.switch_cpus.iq.FU_type_0::SimdFloatCmp            0      0.00%     49.71% # Type of FU issued
system.switch_cpus.iq.FU_type_0::SimdFloatCvt            0      0.00%     49.71% # Type of FU issued
system.switch_cpus.iq.FU_type_0::SimdFloatDiv            0      0.00%     49.71% # Type of FU issued
system.switch_cpus.iq.FU_type_0::SimdFloatMisc            0      0.00%     49.71% # Type of FU issued
system.switch_cpus.iq.FU_type_0::SimdFloatMult            0      0.00%     49.71% # Type of FU issued
system.switch_cpus.iq.FU_type_0::SimdFloatMultAcc            0      0.00%     49.71% # Type of FU issued
system.switch_cpus.iq.FU_type_0::SimdFloatSqrt            0      0.00%     49.71% # Type of FU issued
system.switch_cpus.iq.FU_type_0::SimdReduceAdd            0      0.00%     49.71% # Type of FU issued
system.switch_cpus.iq.FU_type_0::SimdReduceAlu            0      0.00%     49.71% # Type of FU issued
system.switch_cpus.iq.FU_type_0::SimdReduceCmp            0      0.00%     49.71% # Type of FU issued
system.switch_cpus.iq.FU_type_0::SimdFloatReduceAdd            0      0.00%     49.71% # Type of FU issued
system.switch_cpus.iq.FU_type_0::SimdFloatReduceCmp            0      0.00%     49.71% # Type of FU issued
system.switch_cpus.iq.FU_type_0::SimdAes            0      0.00%     49.71% # Type of FU issued
system.switch_cpus.iq.FU_type_0::SimdAesMix            0      0.00%     49.71% # Type of FU issued
system.switch_cpus.iq.FU_type_0::SimdSha1Hash            0      0.00%     49.71% # Type of FU issued
system.switch_cpus.iq.FU_type_0::SimdSha1Hash2            0      0.00%     49.71% # Type of FU issued
system.switch_cpus.iq.FU_type_0::SimdSha256Hash            0      0.00%     49.71% # Type of FU issued
system.switch_cpus.iq.FU_type_0::SimdSha256Hash2            0      0.00%     49.71% # Type of FU issued
system.switch_cpus.iq.FU_type_0::SimdShaSigma2            0      0.00%     49.71% # Type of FU issued
system.switch_cpus.iq.FU_type_0::SimdShaSigma3            0      0.00%     49.71% # Type of FU issued
system.switch_cpus.iq.FU_type_0::SimdPredAlu            0      0.00%     49.71% # Type of FU issued
system.switch_cpus.iq.FU_type_0::MemRead       428256     41.11%     90.82% # Type of FU issued
system.switch_cpus.iq.FU_type_0::MemWrite        95653      9.18%    100.00% # Type of FU issued
system.switch_cpus.iq.FU_type_0::FloatMemRead            0      0.00%    100.00% # Type of FU issued
system.switch_cpus.iq.FU_type_0::FloatMemWrite            0      0.00%    100.00% # Type of FU issued
system.switch_cpus.iq.FU_type_0::IprAccess            0      0.00%    100.00% # Type of FU issued
system.switch_cpus.iq.FU_type_0::InstPrefetch            0      0.00%    100.00% # Type of FU issued
system.switch_cpus.iq.FU_type_0::total        1041713                       # Type of FU issued
system.switch_cpus.iq.fp_alu_accesses               0                       # Number of floating point alu accesses
system.switch_cpus.iq.fp_inst_queue_reads            0                       # Number of floating instruction queue reads
system.switch_cpus.iq.fp_inst_queue_wakeup_accesses            0                       # Number of floating instruction queue wakeup accesses
system.switch_cpus.iq.fp_inst_queue_writes            0                       # Number of floating instruction queue writes
system.switch_cpus.iq.fu_busy_cnt               11528                       # FU busy when requested
system.switch_cpus.iq.fu_busy_rate           0.011066                       # FU busy rate (busy events/executed inst)
system.switch_cpus.iq.fu_full::No_OpClass            0      0.00%      0.00% # attempts to use FU when none available
system.switch_cpus.iq.fu_full::IntAlu               0      0.00%      0.00% # attempts to use FU when none available
system.switch_cpus.iq.fu_full::IntMult              0      0.00%      0.00% # attempts to use FU when none available
system.switch_cpus.iq.fu_full::IntDiv               0      0.00%      0.00% # attempts to use FU when none available
system.switch_cpus.iq.fu_full::FloatAdd             0      0.00%      0.00% # attempts to use FU when none available
system.switch_cpus.iq.fu_full::FloatCmp             0      0.00%      0.00% # attempts to use FU when none available
system.switch_cpus.iq.fu_full::FloatCvt             0      0.00%      0.00% # attempts to use FU when none available
system.switch_cpus.iq.fu_full::FloatMult            0      0.00%      0.00% # attempts to use FU when none available
system.switch_cpus.iq.fu_full::FloatMultAcc            0      0.00%      0.00% # attempts to use FU when none available
system.switch_cpus.iq.fu_full::FloatDiv             0      0.00%      0.00% # attempts to use FU when none available
system.switch_cpus.iq.fu_full::FloatMisc            0      0.00%      0.00% # attempts to use FU when none available
system.switch_cpus.iq.fu_full::FloatSqrt            0      0.00%      0.00% # attempts to use FU when none available
system.switch_cpus.iq.fu_full::SimdAdd              0      0.00%      0.00% # attempts to use FU when none available
system.switch_cpus.iq.fu_full::SimdAddAcc            0      0.00%      0.00% # attempts to use FU when none available
system.switch_cpus.iq.fu_full::SimdAlu              0      0.00%      0.00% # attempts to use FU when none available
system.switch_cpus.iq.fu_full::SimdCmp              0      0.00%      0.00% # attempts to use FU when none available
system.switch_cpus.iq.fu_full::SimdCvt              0      0.00%      0.00% # attempts to use FU when none available
system.switch_cpus.iq.fu_full::SimdMisc             0      0.00%      0.00% # attempts to use FU when none available
system.switch_cpus.iq.fu_full::SimdMult             0      0.00%      0.00% # attempts to use FU when none available
system.switch_cpus.iq.fu_full::SimdMultAcc            0      0.00%      0.00% # attempts to use FU when none available
system.switch_cpus.iq.fu_full::SimdShift            0      0.00%      0.00% # attempts to use FU when none available
system.switch_cpus.iq.fu_full::SimdShiftAcc            0      0.00%      0.00% # attempts to use FU when none available
system.switch_cpus.iq.fu_full::SimdDiv              0      0.00%      0.00% # attempts to use FU when none available
system.switch_cpus.iq.fu_full::SimdSqrt             0      0.00%      0.00% # attempts to use FU when none available
system.switch_cpus.iq.fu_full::SimdFloatAdd            0      0.00%      0.00% # attempts to use FU when none available
system.switch_cpus.iq.fu_full::SimdFloatAlu            0      0.00%      0.00% # attempts to use FU when none available
system.switch_cpus.iq.fu_full::SimdFloatCmp            0      0.00%      0.00% # attempts to use FU when none available
system.switch_cpus.iq.fu_full::SimdFloatCvt            0      0.00%      0.00% # attempts to use FU when none available
system.switch_cpus.iq.fu_full::SimdFloatDiv            0      0.00%      0.00% # attempts to use FU when none available
system.switch_cpus.iq.fu_full::SimdFloatMisc            0      0.00%      0.00% # attempts to use FU when none available
system.switch_cpus.iq.fu_full::SimdFloatMult            0      0.00%      0.00% # attempts to use FU when none available
system.switch_cpus.iq.fu_full::SimdFloatMultAcc            0      0.00%      0.00% # attempts to use FU when none available
system.switch_cpus.iq.fu_full::SimdFloatSqrt            0      0.00%      0.00% # attempts to use FU when none available
system.switch_cpus.iq.fu_full::SimdReduceAdd            0      0.00%      0.00% # attempts to use FU when none available
system.switch_cpus.iq.fu_full::SimdReduceAlu            0      0.00%      0.00% # attempts to use FU when none available
system.switch_cpus.iq.fu_full::SimdReduceCmp            0      0.00%      0.00% # attempts to use FU when none available
system.switch_cpus.iq.fu_full::SimdFloatReduceAdd            0      0.00%      0.00% # attempts to use FU when none available
system.switch_cpus.iq.fu_full::SimdFloatReduceCmp            0      0.00%      0.00% # attempts to use FU when none available
system.switch_cpus.iq.fu_full::SimdAes              0      0.00%      0.00% # attempts to use FU when none available
system.switch_cpus.iq.fu_full::SimdAesMix            0      0.00%      0.00% # attempts to use FU when none available
system.switch_cpus.iq.fu_full::SimdSha1Hash            0      0.00%      0.00% # attempts to use FU when none available
system.switch_cpus.iq.fu_full::SimdSha1Hash2            0      0.00%      0.00% # attempts to use FU when none available
system.switch_cpus.iq.fu_full::SimdSha256Hash            0      0.00%      0.00% # attempts to use FU when none available
system.switch_cpus.iq.fu_full::SimdSha256Hash2            0      0.00%      0.00% # attempts to use FU when none available
system.switch_cpus.iq.fu_full::SimdShaSigma2            0      0.00%      0.00% # attempts to use FU when none available
system.switch_cpus.iq.fu_full::SimdShaSigma3            0      0.00%      0.00% # attempts to use FU when none available
system.switch_cpus.iq.fu_full::SimdPredAlu            0      0.00%      0.00% # attempts to use FU when none available
system.switch_cpus.iq.fu_full::MemRead          11494     99.71%     99.71% # attempts to use FU when none available
system.switch_cpus.iq.fu_full::MemWrite            34      0.29%    100.00% # attempts to use FU when none available
system.switch_cpus.iq.fu_full::FloatMemRead            0      0.00%    100.00% # attempts to use FU when none available
system.switch_cpus.iq.fu_full::FloatMemWrite            0      0.00%    100.00% # attempts to use FU when none available
system.switch_cpus.iq.fu_full::IprAccess            0      0.00%    100.00% # attempts to use FU when none available
system.switch_cpus.iq.fu_full::InstPrefetch            0      0.00%    100.00% # attempts to use FU when none available
system.switch_cpus.iq.int_alu_accesses        1053241                       # Number of integer alu accesses
system.switch_cpus.iq.int_inst_queue_reads      3463442                       # Number of integer instruction queue reads
system.switch_cpus.iq.int_inst_queue_wakeup_accesses      1035904                       # Number of integer instruction queue wakeup accesses
system.switch_cpus.iq.int_inst_queue_writes      1126746                       # Number of integer instruction queue writes
system.switch_cpus.iq.iqInstsAdded            1063391                       # Number of instructions added to the IQ (excludes non-spec)
system.switch_cpus.iq.iqInstsIssued           1041713                       # Number of instructions issued
system.switch_cpus.iq.iqSquashedInstsExamined        63330                       # Number of squashed instructions iterated over during squash; mainly for profiling
system.switch_cpus.iq.iqSquashedInstsIssued            8                       # Number of squashed instructions issued
system.switch_cpus.iq.iqSquashedOperandsExamined        40883                       # Number of squashed operands that are examined and possibly removed from graph
system.switch_cpus.iq.issued_per_cycle::samples      1368481                       # Number of insts issued each cycle
system.switch_cpus.iq.issued_per_cycle::mean     0.761218                       # Number of insts issued each cycle
system.switch_cpus.iq.issued_per_cycle::stdev     1.419813                       # Number of insts issued each cycle
system.switch_cpus.iq.issued_per_cycle::underflows            0      0.00%      0.00% # Number of insts issued each cycle
system.switch_cpus.iq.issued_per_cycle::0       969729     70.86%     70.86% # Number of insts issued each cycle
system.switch_cpus.iq.issued_per_cycle::1       122677      8.96%     79.83% # Number of insts issued each cycle
system.switch_cpus.iq.issued_per_cycle::2        80243      5.86%     85.69% # Number of insts issued each cycle
system.switch_cpus.iq.issued_per_cycle::3        83793      6.12%     91.81% # Number of insts issued each cycle
system.switch_cpus.iq.issued_per_cycle::4        66860      4.89%     96.70% # Number of insts issued each cycle
system.switch_cpus.iq.issued_per_cycle::5        32509      2.38%     99.07% # Number of insts issued each cycle
system.switch_cpus.iq.issued_per_cycle::6        11553      0.84%     99.92% # Number of insts issued each cycle
system.switch_cpus.iq.issued_per_cycle::7         1068      0.08%    100.00% # Number of insts issued each cycle
system.switch_cpus.iq.issued_per_cycle::8           49      0.00%    100.00% # Number of insts issued each cycle
system.switch_cpus.iq.issued_per_cycle::overflows            0      0.00%    100.00% # Number of insts issued each cycle
system.switch_cpus.iq.issued_per_cycle::min_value            0                       # Number of insts issued each cycle
system.switch_cpus.iq.issued_per_cycle::max_value            8                       # Number of insts issued each cycle
system.switch_cpus.iq.issued_per_cycle::total      1368481                       # Number of insts issued each cycle
system.switch_cpus.iq.rate                   0.761014                       # Inst issue rate
system.switch_cpus.iq.vec_alu_accesses              0                       # Number of vector alu accesses
system.switch_cpus.iq.vec_inst_queue_reads            0                       # Number of vector instruction queue reads
system.switch_cpus.iq.vec_inst_queue_wakeup_accesses            0                       # Number of vector instruction queue wakeup accesses
system.switch_cpus.iq.vec_inst_queue_writes            0                       # Number of vector instruction queue writes
system.switch_cpus.memDep0.conflictingLoads       158639                       # Number of conflicting loads.
system.switch_cpus.memDep0.conflictingStores        38314                       # Number of conflicting stores.
system.switch_cpus.memDep0.insertedLoads       434026                       # Number of loads inserted to the mem dependence unit.
system.switch_cpus.memDep0.insertedStores        98152                       # Number of stores inserted to the mem dependence unit.
system.switch_cpus.misc_regfile_reads         2381550                       # number of misc regfile reads
system.switch_cpus.misc_regfile_writes              1                       # number of misc regfile writes
system.switch_cpus.numCycles                  1368849                       # number of cpu cycles simulated
system.switch_cpus.numWorkItemsCompleted            0                       # number of work items this cpu completed
system.switch_cpus.numWorkItemsStarted              0                       # number of work items this cpu started
system.switch_cpus.timesIdled                       5                       # Number of times that the entire CPU went into an idle state and unscheduled itself
system.switch_cpus.vec_regfile_writes              44                       # number of vector regfile writes
system.tol2bus.snoop_filter.hit_multi_requests            0                       # Number of requests hitting in the snoop filter with multiple (>1) holders of the requested data.
system.tol2bus.snoop_filter.hit_multi_snoops            0                       # Number of snoops hitting in the snoop filter with multiple (>1) holders of the requested data.
system.tol2bus.snoop_filter.hit_single_requests        23603                       # Number of requests hitting in the snoop filter with a single holder of the requested data.
system.tol2bus.snoop_filter.hit_single_snoops            0                       # Number of snoops hitting in the snoop filter with a single holder of the requested data.
system.tol2bus.snoop_filter.tot_requests        47472                       # Total number of requests made to the snoop filter.
system.tol2bus.snoop_filter.tot_snoops              0                       # Total number of snoops made to the snoop filter.
system.clk_domain.clock                          1000                       # Clock period in ticks
system.cpu.dcache.demand_hits::.cpu.data            8                       # number of demand (read+write) hits
system.cpu.dcache.demand_hits::.switch_cpus.data       294253                       # number of demand (read+write) hits
system.cpu.dcache.demand_hits::total           294261                       # number of demand (read+write) hits
system.cpu.dcache.overall_hits::.cpu.data            8                       # number of overall hits
system.cpu.dcache.overall_hits::.switch_cpus.data       294253                       # number of overall hits
system.cpu.dcache.overall_hits::total          294261                       # number of overall hits
system.cpu.dcache.demand_misses::.cpu.data            5                       # number of demand (read+write) misses
system.cpu.dcache.demand_misses::.switch_cpus.data        34895                       # number of demand (read+write) misses
system.cpu.dcache.demand_misses::total          34900                       # number of demand (read+write) misses
system.cpu.dcache.overall_misses::.cpu.data            5                       # number of overall misses
system.cpu.dcache.overall_misses::.switch_cpus.data        34895                       # number of overall misses
system.cpu.dcache.overall_misses::total         34900                       # number of overall misses
system.cpu.dcache.demand_miss_latency::.switch_cpus.data   1141583099                       # number of demand (read+write) miss cycles
system.cpu.dcache.demand_miss_latency::total   1141583099                       # number of demand (read+write) miss cycles
system.cpu.dcache.overall_miss_latency::.switch_cpus.data   1141583099                       # number of overall miss cycles
system.cpu.dcache.overall_miss_latency::total   1141583099                       # number of overall miss cycles
system.cpu.dcache.demand_accesses::.cpu.data           13                       # number of demand (read+write) accesses
system.cpu.dcache.demand_accesses::.switch_cpus.data       329148                       # number of demand (read+write) accesses
system.cpu.dcache.demand_accesses::total       329161                       # number of demand (read+write) accesses
system.cpu.dcache.overall_accesses::.cpu.data           13                       # number of overall (read+write) accesses
system.cpu.dcache.overall_accesses::.switch_cpus.data       329148                       # number of overall (read+write) accesses
system.cpu.dcache.overall_accesses::total       329161                       # number of overall (read+write) accesses
system.cpu.dcache.demand_miss_rate::.cpu.data     0.384615                       # miss rate for demand accesses
system.cpu.dcache.demand_miss_rate::.switch_cpus.data     0.106016                       # miss rate for demand accesses
system.cpu.dcache.demand_miss_rate::total     0.106027                       # miss rate for demand accesses
system.cpu.dcache.overall_miss_rate::.cpu.data     0.384615                       # miss rate for overall accesses
system.cpu.dcache.overall_miss_rate::.switch_cpus.data     0.106016                       # miss rate for overall accesses
system.cpu.dcache.overall_miss_rate::total     0.106027                       # miss rate for overall accesses
system.cpu.dcache.demand_avg_miss_latency::.switch_cpus.data 32714.804385                       # average overall miss latency
system.cpu.dcache.demand_avg_miss_latency::total 32710.117450                       # average overall miss latency
system.cpu.dcache.overall_avg_miss_latency::.switch_cpus.data 32714.804385                       # average overall miss latency
system.cpu.dcache.overall_avg_miss_latency::total 32710.117450                       # average overall miss latency
system.cpu.dcache.blocked_cycles::no_mshrs        10763                       # number of cycles access was blocked
system.cpu.dcache.blocked_cycles::no_targets            0                       # number of cycles access was blocked
system.cpu.dcache.blocked::no_mshrs               739                       # number of cycles access was blocked
system.cpu.dcache.blocked::no_targets               0                       # number of cycles access was blocked
system.cpu.dcache.avg_blocked_cycles::no_mshrs    14.564276                       # average number of cycles each access was blocked
system.cpu.dcache.avg_blocked_cycles::no_targets          nan                       # average number of cycles each access was blocked
system.cpu.dcache.writebacks::.writebacks         6006                       # number of writebacks
system.cpu.dcache.writebacks::total              6006                       # number of writebacks
system.cpu.dcache.demand_mshr_hits::.switch_cpus.data        11040                       # number of demand (read+write) MSHR hits
system.cpu.dcache.demand_mshr_hits::total        11040                       # number of demand (read+write) MSHR hits
system.cpu.dcache.overall_mshr_hits::.switch_cpus.data        11040                       # number of overall MSHR hits
system.cpu.dcache.overall_mshr_hits::total        11040                       # number of overall MSHR hits
system.cpu.dcache.demand_mshr_misses::.switch_cpus.data        23855                       # number of demand (read+write) MSHR misses
system.cpu.dcache.demand_mshr_misses::total        23855                       # number of demand (read+write) MSHR misses
system.cpu.dcache.overall_mshr_misses::.switch_cpus.data        23855                       # number of overall MSHR misses
system.cpu.dcache.overall_mshr_misses::total        23855                       # number of overall MSHR misses
system.cpu.dcache.demand_mshr_miss_latency::.switch_cpus.data    492006843                       # number of demand (read+write) MSHR miss cycles
system.cpu.dcache.demand_mshr_miss_latency::total    492006843                       # number of demand (read+write) MSHR miss cycles
system.cpu.dcache.overall_mshr_miss_latency::.switch_cpus.data    492006843                       # number of overall MSHR miss cycles
system.cpu.dcache.overall_mshr_miss_latency::total    492006843                       # number of overall MSHR miss cycles
system.cpu.dcache.demand_mshr_miss_rate::.switch_cpus.data     0.072475                       # mshr miss rate for demand accesses
system.cpu.dcache.demand_mshr_miss_rate::total     0.072472                       # mshr miss rate for demand accesses
system.cpu.dcache.overall_mshr_miss_rate::.switch_cpus.data     0.072475                       # mshr miss rate for overall accesses
system.cpu.dcache.overall_mshr_miss_rate::total     0.072472                       # mshr miss rate for overall accesses
system.cpu.dcache.demand_avg_mshr_miss_latency::.switch_cpus.data 20624.893859                       # average overall mshr miss latency
system.cpu.dcache.demand_avg_mshr_miss_latency::total 20624.893859                       # average overall mshr miss latency
system.cpu.dcache.overall_avg_mshr_miss_latency::.switch_cpus.data 20624.893859                       # average overall mshr miss latency
system.cpu.dcache.overall_avg_mshr_miss_latency::total 20624.893859                       # average overall mshr miss latency
system.cpu.dcache.replacements                  23603                       # number of replacements
system.cpu.dcache.ReadReq_hits::.cpu.data            6                       # number of ReadReq hits
system.cpu.dcache.ReadReq_hits::.switch_cpus.data       201923                       # number of ReadReq hits
system.cpu.dcache.ReadReq_hits::total          201929                       # number of ReadReq hits
system.cpu.dcache.ReadReq_misses::.cpu.data            4                       # number of ReadReq misses
system.cpu.dcache.ReadReq_misses::.switch_cpus.data        34836                       # number of ReadReq misses
system.cpu.dcache.ReadReq_misses::total         34840                       # number of ReadReq misses
system.cpu.dcache.ReadReq_miss_latency::.switch_cpus.data   1139961639                       # number of ReadReq miss cycles
system.cpu.dcache.ReadReq_miss_latency::total   1139961639                       # number of ReadReq miss cycles
system.cpu.dcache.ReadReq_accesses::.cpu.data           10                       # number of ReadReq accesses(hits+misses)
system.cpu.dcache.ReadReq_accesses::.switch_cpus.data       236759                       # number of ReadReq accesses(hits+misses)
system.cpu.dcache.ReadReq_accesses::total       236769                       # number of ReadReq accesses(hits+misses)
system.cpu.dcache.ReadReq_miss_rate::.cpu.data     0.400000                       # miss rate for ReadReq accesses
system.cpu.dcache.ReadReq_miss_rate::.switch_cpus.data     0.147137                       # miss rate for ReadReq accesses
system.cpu.dcache.ReadReq_miss_rate::total     0.147148                       # miss rate for ReadReq accesses
system.cpu.dcache.ReadReq_avg_miss_latency::.switch_cpus.data 32723.666293                       # average ReadReq miss latency
system.cpu.dcache.ReadReq_avg_miss_latency::total 32719.909271                       # average ReadReq miss latency
system.cpu.dcache.ReadReq_mshr_hits::.switch_cpus.data        11039                       # number of ReadReq MSHR hits
system.cpu.dcache.ReadReq_mshr_hits::total        11039                       # number of ReadReq MSHR hits
system.cpu.dcache.ReadReq_mshr_misses::.switch_cpus.data        23797                       # number of ReadReq MSHR misses
system.cpu.dcache.ReadReq_mshr_misses::total        23797                       # number of ReadReq MSHR misses
system.cpu.dcache.ReadReq_mshr_miss_latency::.switch_cpus.data    490486159                       # number of ReadReq MSHR miss cycles
system.cpu.dcache.ReadReq_mshr_miss_latency::total    490486159                       # number of ReadReq MSHR miss cycles
system.cpu.dcache.ReadReq_mshr_miss_rate::.switch_cpus.data     0.100511                       # mshr miss rate for ReadReq accesses
system.cpu.dcache.ReadReq_mshr_miss_rate::total     0.100507                       # mshr miss rate for ReadReq accesses
system.cpu.dcache.ReadReq_avg_mshr_miss_latency::.switch_cpus.data 20611.260201                       # average ReadReq mshr miss latency
system.cpu.dcache.ReadReq_avg_mshr_miss_latency::total 20611.260201                       # average ReadReq mshr miss latency
system.cpu.dcache.WriteReq_hits::.cpu.data            2                       # number of WriteReq hits
system.cpu.dcache.WriteReq_hits::.switch_cpus.data        92330                       # number of WriteReq hits
system.cpu.dcache.WriteReq_hits::total          92332                       # number of WriteReq hits
system.cpu.dcache.WriteReq_misses::.cpu.data            1                       # number of WriteReq misses
system.cpu.dcache.WriteReq_misses::.switch_cpus.data           59                       # number of WriteReq misses
system.cpu.dcache.WriteReq_misses::total           60                       # number of WriteReq misses
system.cpu.dcache.WriteReq_miss_latency::.switch_cpus.data      1621460                       # number of WriteReq miss cycles
system.cpu.dcache.WriteReq_miss_latency::total      1621460                       # number of WriteReq miss cycles
system.cpu.dcache.WriteReq_accesses::.cpu.data            3                       # number of WriteReq accesses(hits+misses)
system.cpu.dcache.WriteReq_accesses::.switch_cpus.data        92389                       # number of WriteReq accesses(hits+misses)
system.cpu.dcache.WriteReq_accesses::total        92392                       # number of WriteReq accesses(hits+misses)
system.cpu.dcache.WriteReq_miss_rate::.cpu.data     0.333333                       # miss rate for WriteReq accesses
system.cpu.dcache.WriteReq_miss_rate::.switch_cpus.data     0.000639                       # miss rate for WriteReq accesses
system.cpu.dcache.WriteReq_miss_rate::total     0.000649                       # miss rate for WriteReq accesses
system.cpu.dcache.WriteReq_avg_miss_latency::.switch_cpus.data 27482.372881                       # average WriteReq miss latency
system.cpu.dcache.WriteReq_avg_miss_latency::total 27024.333333                       # average WriteReq miss latency
system.cpu.dcache.WriteReq_mshr_hits::.switch_cpus.data            1                       # number of WriteReq MSHR hits
system.cpu.dcache.WriteReq_mshr_hits::total            1                       # number of WriteReq MSHR hits
system.cpu.dcache.WriteReq_mshr_misses::.switch_cpus.data           58                       # number of WriteReq MSHR misses
system.cpu.dcache.WriteReq_mshr_misses::total           58                       # number of WriteReq MSHR misses
system.cpu.dcache.WriteReq_mshr_miss_latency::.switch_cpus.data      1520684                       # number of WriteReq MSHR miss cycles
system.cpu.dcache.WriteReq_mshr_miss_latency::total      1520684                       # number of WriteReq MSHR miss cycles
system.cpu.dcache.WriteReq_mshr_miss_rate::.switch_cpus.data     0.000628                       # mshr miss rate for WriteReq accesses
system.cpu.dcache.WriteReq_mshr_miss_rate::total     0.000628                       # mshr miss rate for WriteReq accesses
system.cpu.dcache.WriteReq_avg_mshr_miss_latency::.switch_cpus.data 26218.689655                       # average WriteReq mshr miss latency
system.cpu.dcache.WriteReq_avg_mshr_miss_latency::total 26218.689655                       # average WriteReq mshr miss latency
system.cpu.dcache.power_state.pwrStateResidencyTicks::UNDEFINED 570228122512                       # Cumulative time (in ticks) in various power states
system.cpu.dcache.tags.tagsinuse           253.784528                       # Cycle average of tags in use
system.cpu.dcache.tags.total_refs               80826                       # Total number of references to valid blocks.
system.cpu.dcache.tags.sampled_refs             23603                       # Sample count of references to valid blocks.
system.cpu.dcache.tags.avg_refs              3.424395                       # Average number of references to valid blocks.
system.cpu.dcache.tags.warmup_cycle      569785974918                       # Cycle when the warmup percentage was hit.
system.cpu.dcache.tags.occ_blocks::.cpu.data     3.063945                       # Average occupied blocks per requestor
system.cpu.dcache.tags.occ_blocks::.switch_cpus.data   250.720582                       # Average occupied blocks per requestor
system.cpu.dcache.tags.occ_percent::.cpu.data     0.011969                       # Average percentage of cache occupancy
system.cpu.dcache.tags.occ_percent::.switch_cpus.data     0.979377                       # Average percentage of cache occupancy
system.cpu.dcache.tags.occ_percent::total     0.991346                       # Average percentage of cache occupancy
system.cpu.dcache.tags.occ_task_id_blocks::1024          256                       # Occupied blocks per task id
system.cpu.dcache.tags.age_task_id_blocks_1024::0          231                       # Occupied blocks per task id
system.cpu.dcache.tags.age_task_id_blocks_1024::1           21                       # Occupied blocks per task id
system.cpu.dcache.tags.age_task_id_blocks_1024::2            4                       # Occupied blocks per task id
system.cpu.dcache.tags.occ_task_id_percent::1024            1                       # Percentage of cache occupancy per task id
system.cpu.dcache.tags.tag_accesses           2657147                       # Number of tag accesses
system.cpu.dcache.tags.data_accesses          2657147                       # Number of data accesses
system.cpu.dcache.tags.power_state.pwrStateResidencyTicks::UNDEFINED 570228122512                       # Cumulative time (in ticks) in various power states
system.cpu.dtb.instHits                             0                       # ITB inst hits
system.cpu.dtb.instMisses                           0                       # ITB inst misses
system.cpu.dtb.readHits                             0                       # DTB read hits
system.cpu.dtb.readMisses                           0                       # DTB read misses
system.cpu.dtb.writeHits                            0                       # DTB write hits
system.cpu.dtb.writeMisses                          0                       # DTB write misses
system.cpu.dtb.inserts                              0                       # Number of times an entry is inserted into the TLB
system.cpu.dtb.flushTlb                             2                       # Number of times complete TLB was flushed
system.cpu.dtb.flushTlbMva                          0                       # Number of times TLB was flushed by MVA
system.cpu.dtb.flushTlbMvaAsid                      0                       # Number of times TLB was flushed by MVA & ASID
system.cpu.dtb.flushTlbAsid                         0                       # Number of times TLB was flushed by ASID
system.cpu.dtb.flushedEntries                       0                       # Number of entries that have been flushed from TLB
system.cpu.dtb.alignFaults                          0                       # Number of TLB faults due to alignment restrictions
system.cpu.dtb.prefetchFaults                       0                       # Number of TLB faults due to prefetch
system.cpu.dtb.domainFaults                         0                       # Number of TLB faults due to domain restrictions
system.cpu.dtb.permsFaults                          0                       # Number of TLB faults due to permissions restrictions
system.cpu.dtb.readAccesses                         0                       # DTB read accesses
system.cpu.dtb.writeAccesses                        0                       # DTB write accesses
system.cpu.dtb.instAccesses                         0                       # ITB inst accesses
system.cpu.dtb.hits                                 0                       # Total TLB (inst and data) hits
system.cpu.dtb.misses                               0                       # Total TLB (inst and data) misses
system.cpu.dtb.accesses                             0                       # Total TLB (inst and data) accesses
system.cpu.dtb.stage2_mmu.stage2_tlb.instHits            0                       # ITB inst hits
system.cpu.dtb.stage2_mmu.stage2_tlb.instMisses            0                       # ITB inst misses
system.cpu.dtb.stage2_mmu.stage2_tlb.readHits            0                       # DTB read hits
system.cpu.dtb.stage2_mmu.stage2_tlb.readMisses            0                       # DTB read misses
system.cpu.dtb.stage2_mmu.stage2_tlb.writeHits            0                       # DTB write hits
system.cpu.dtb.stage2_mmu.stage2_tlb.writeMisses            0                       # DTB write misses
system.cpu.dtb.stage2_mmu.stage2_tlb.inserts            0                       # Number of times an entry is inserted into the TLB
system.cpu.dtb.stage2_mmu.stage2_tlb.flushTlb            0                       # Number of times complete TLB was flushed
system.cpu.dtb.stage2_mmu.stage2_tlb.flushTlbMva            0                       # Number of times TLB was flushed by MVA
system.cpu.dtb.stage2_mmu.stage2_tlb.flushTlbMvaAsid            0                       # Number of times TLB was flushed by MVA & ASID
system.cpu.dtb.stage2_mmu.stage2_tlb.flushTlbAsid            0                       # Number of times TLB was flushed by ASID
system.cpu.dtb.stage2_mmu.stage2_tlb.flushedEntries            0                       # Number of entries that have been flushed from TLB
system.cpu.dtb.stage2_mmu.stage2_tlb.alignFaults            0                       # Number of TLB faults due to alignment restrictions
system.cpu.dtb.stage2_mmu.stage2_tlb.prefetchFaults            0                       # Number of TLB faults due to prefetch
system.cpu.dtb.stage2_mmu.stage2_tlb.domainFaults            0                       # Number of TLB faults due to domain restrictions
system.cpu.dtb.stage2_mmu.stage2_tlb.permsFaults            0                       # Number of TLB faults due to permissions restrictions
system.cpu.dtb.stage2_mmu.stage2_tlb.readAccesses            0                       # DTB read accesses
system.cpu.dtb.stage2_mmu.stage2_tlb.writeAccesses            0                       # DTB write accesses
system.cpu.dtb.stage2_mmu.stage2_tlb.instAccesses            0                       # ITB inst accesses
system.cpu.dtb.stage2_mmu.stage2_tlb.hits            0                       # Total TLB (inst and data) hits
system.cpu.dtb.stage2_mmu.stage2_tlb.misses            0                       # Total TLB (inst and data) misses
system.cpu.dtb.stage2_mmu.stage2_tlb.accesses            0                       # Total TLB (inst and data) accesses
system.cpu.dtb.stage2_mmu.stage2_tlb.walker.walks            0                       # Table walker walks requested
system.cpu.dtb.stage2_mmu.stage2_tlb.walker.requestOrigin_Requested::Data            0                       # Table walker requests started/completed, data/inst
system.cpu.dtb.stage2_mmu.stage2_tlb.walker.requestOrigin_Requested::Inst            0                       # Table walker requests started/completed, data/inst
system.cpu.dtb.stage2_mmu.stage2_tlb.walker.requestOrigin_Requested::total            0                       # Table walker requests started/completed, data/inst
system.cpu.dtb.stage2_mmu.stage2_tlb.walker.requestOrigin_Completed::Data            0                       # Table walker requests started/completed, data/inst
system.cpu.dtb.stage2_mmu.stage2_tlb.walker.requestOrigin_Completed::Inst            0                       # Table walker requests started/completed, data/inst
system.cpu.dtb.stage2_mmu.stage2_tlb.walker.requestOrigin_Completed::total            0                       # Table walker requests started/completed, data/inst
system.cpu.dtb.stage2_mmu.stage2_tlb.walker.requestOrigin::total            0                       # Table walker requests started/completed, data/inst
system.cpu.dtb.stage2_mmu.stage2_tlb.walker.power_state.pwrStateResidencyTicks::UNDEFINED 570228122512                       # Cumulative time (in ticks) in various power states
system.cpu.dtb.walker.walks                         0                       # Table walker walks requested
system.cpu.dtb.walker.requestOrigin_Requested::Data            0                       # Table walker requests started/completed, data/inst
system.cpu.dtb.walker.requestOrigin_Requested::Inst            0                       # Table walker requests started/completed, data/inst
system.cpu.dtb.walker.requestOrigin_Requested::total            0                       # Table walker requests started/completed, data/inst
system.cpu.dtb.walker.requestOrigin_Completed::Data            0                       # Table walker requests started/completed, data/inst
system.cpu.dtb.walker.requestOrigin_Completed::Inst            0                       # Table walker requests started/completed, data/inst
system.cpu.dtb.walker.requestOrigin_Completed::total            0                       # Table walker requests started/completed, data/inst
system.cpu.dtb.walker.requestOrigin::total            0                       # Table walker requests started/completed, data/inst
system.cpu.dtb.walker.power_state.pwrStateResidencyTicks::UNDEFINED 570228122512                       # Cumulative time (in ticks) in various power states
system.cpu.icache.demand_hits::.cpu.inst           27                       # number of demand (read+write) hits
system.cpu.icache.demand_hits::.switch_cpus.inst       151767                       # number of demand (read+write) hits
system.cpu.icache.demand_hits::total           151794                       # number of demand (read+write) hits
system.cpu.icache.overall_hits::.cpu.inst           27                       # number of overall hits
system.cpu.icache.overall_hits::.switch_cpus.inst       151767                       # number of overall hits
system.cpu.icache.overall_hits::total          151794                       # number of overall hits
system.cpu.icache.demand_misses::.cpu.inst            3                       # number of demand (read+write) misses
system.cpu.icache.demand_misses::.switch_cpus.inst           37                       # number of demand (read+write) misses
system.cpu.icache.demand_misses::total             40                       # number of demand (read+write) misses
system.cpu.icache.overall_misses::.cpu.inst            3                       # number of overall misses
system.cpu.icache.overall_misses::.switch_cpus.inst           37                       # number of overall misses
system.cpu.icache.overall_misses::total            40                       # number of overall misses
system.cpu.icache.demand_miss_latency::.switch_cpus.inst      1981282                       # number of demand (read+write) miss cycles
system.cpu.icache.demand_miss_latency::total      1981282                       # number of demand (read+write) miss cycles
system.cpu.icache.overall_miss_latency::.switch_cpus.inst      1981282                       # number of overall miss cycles
system.cpu.icache.overall_miss_latency::total      1981282                       # number of overall miss cycles
system.cpu.icache.demand_accesses::.cpu.inst           30                       # number of demand (read+write) accesses
system.cpu.icache.demand_accesses::.switch_cpus.inst       151804                       # number of demand (read+write) accesses
system.cpu.icache.demand_accesses::total       151834                       # number of demand (read+write) accesses
system.cpu.icache.overall_accesses::.cpu.inst           30                       # number of overall (read+write) accesses
system.cpu.icache.overall_accesses::.switch_cpus.inst       151804                       # number of overall (read+write) accesses
system.cpu.icache.overall_accesses::total       151834                       # number of overall (read+write) accesses
system.cpu.icache.demand_miss_rate::.cpu.inst     0.100000                       # miss rate for demand accesses
system.cpu.icache.demand_miss_rate::.switch_cpus.inst     0.000244                       # miss rate for demand accesses
system.cpu.icache.demand_miss_rate::total     0.000263                       # miss rate for demand accesses
system.cpu.icache.overall_miss_rate::.cpu.inst     0.100000                       # miss rate for overall accesses
system.cpu.icache.overall_miss_rate::.switch_cpus.inst     0.000244                       # miss rate for overall accesses
system.cpu.icache.overall_miss_rate::total     0.000263                       # miss rate for overall accesses
system.cpu.icache.demand_avg_miss_latency::.switch_cpus.inst 53548.162162                       # average overall miss latency
system.cpu.icache.demand_avg_miss_latency::total 49532.050000                       # average overall miss latency
system.cpu.icache.overall_avg_miss_latency::.switch_cpus.inst 53548.162162                       # average overall miss latency
system.cpu.icache.overall_avg_miss_latency::total 49532.050000                       # average overall miss latency
system.cpu.icache.blocked_cycles::no_mshrs            0                       # number of cycles access was blocked
system.cpu.icache.blocked_cycles::no_targets            0                       # number of cycles access was blocked
system.cpu.icache.blocked::no_mshrs                 0                       # number of cycles access was blocked
system.cpu.icache.blocked::no_targets               0                       # number of cycles access was blocked
system.cpu.icache.avg_blocked_cycles::no_mshrs          nan                       # average number of cycles each access was blocked
system.cpu.icache.avg_blocked_cycles::no_targets          nan                       # average number of cycles each access was blocked
system.cpu.icache.demand_mshr_hits::.switch_cpus.inst           31                       # number of demand (read+write) MSHR hits
system.cpu.icache.demand_mshr_hits::total           31                       # number of demand (read+write) MSHR hits
system.cpu.icache.overall_mshr_hits::.switch_cpus.inst           31                       # number of overall MSHR hits
system.cpu.icache.overall_mshr_hits::total           31                       # number of overall MSHR hits
system.cpu.icache.demand_mshr_misses::.switch_cpus.inst            6                       # number of demand (read+write) MSHR misses
system.cpu.icache.demand_mshr_misses::total            6                       # number of demand (read+write) MSHR misses
system.cpu.icache.overall_mshr_misses::.switch_cpus.inst            6                       # number of overall MSHR misses
system.cpu.icache.overall_mshr_misses::total            6                       # number of overall MSHR misses
system.cpu.icache.demand_mshr_miss_latency::.switch_cpus.inst       515508                       # number of demand (read+write) MSHR miss cycles
system.cpu.icache.demand_mshr_miss_latency::total       515508                       # number of demand (read+write) MSHR miss cycles
system.cpu.icache.overall_mshr_miss_latency::.switch_cpus.inst       515508                       # number of overall MSHR miss cycles
system.cpu.icache.overall_mshr_miss_latency::total       515508                       # number of overall MSHR miss cycles
system.cpu.icache.demand_mshr_miss_rate::.switch_cpus.inst     0.000040                       # mshr miss rate for demand accesses
system.cpu.icache.demand_mshr_miss_rate::total     0.000040                       # mshr miss rate for demand accesses
system.cpu.icache.overall_mshr_miss_rate::.switch_cpus.inst     0.000040                       # mshr miss rate for overall accesses
system.cpu.icache.overall_mshr_miss_rate::total     0.000040                       # mshr miss rate for overall accesses
system.cpu.icache.demand_avg_mshr_miss_latency::.switch_cpus.inst        85918                       # average overall mshr miss latency
system.cpu.icache.demand_avg_mshr_miss_latency::total        85918                       # average overall mshr miss latency
system.cpu.icache.overall_avg_mshr_miss_latency::.switch_cpus.inst        85918                       # average overall mshr miss latency
system.cpu.icache.overall_avg_mshr_miss_latency::total        85918                       # average overall mshr miss latency
system.cpu.icache.replacements                      0                       # number of replacements
system.cpu.icache.ReadReq_hits::.cpu.inst           27                       # number of ReadReq hits
system.cpu.icache.ReadReq_hits::.switch_cpus.inst       151767                       # number of ReadReq hits
system.cpu.icache.ReadReq_hits::total          151794                       # number of ReadReq hits
system.cpu.icache.ReadReq_misses::.cpu.inst            3                       # number of ReadReq misses
system.cpu.icache.ReadReq_misses::.switch_cpus.inst           37                       # number of ReadReq misses
system.cpu.icache.ReadReq_misses::total            40                       # number of ReadReq misses
system.cpu.icache.ReadReq_miss_latency::.switch_cpus.inst      1981282                       # number of ReadReq miss cycles
system.cpu.icache.ReadReq_miss_latency::total      1981282                       # number of ReadReq miss cycles
system.cpu.icache.ReadReq_accesses::.cpu.inst           30                       # number of ReadReq accesses(hits+misses)
system.cpu.icache.ReadReq_accesses::.switch_cpus.inst       151804                       # number of ReadReq accesses(hits+misses)
system.cpu.icache.ReadReq_accesses::total       151834                       # number of ReadReq accesses(hits+misses)
system.cpu.icache.ReadReq_miss_rate::.cpu.inst     0.100000                       # miss rate for ReadReq accesses
system.cpu.icache.ReadReq_miss_rate::.switch_cpus.inst     0.000244                       # miss rate for ReadReq accesses
system.cpu.icache.ReadReq_miss_rate::total     0.000263                       # miss rate for ReadReq accesses
system.cpu.icache.ReadReq_avg_miss_latency::.switch_cpus.inst 53548.162162                       # average ReadReq miss latency
system.cpu.icache.ReadReq_avg_miss_latency::total 49532.050000                       # average ReadReq miss latency
system.cpu.icache.ReadReq_mshr_hits::.switch_cpus.inst           31                       # number of ReadReq MSHR hits
system.cpu.icache.ReadReq_mshr_hits::total           31                       # number of ReadReq MSHR hits
system.cpu.icache.ReadReq_mshr_misses::.switch_cpus.inst            6                       # number of ReadReq MSHR misses
system.cpu.icache.ReadReq_mshr_misses::total            6                       # number of ReadReq MSHR misses
system.cpu.icache.ReadReq_mshr_miss_latency::.switch_cpus.inst       515508                       # number of ReadReq MSHR miss cycles
system.cpu.icache.ReadReq_mshr_miss_latency::total       515508                       # number of ReadReq MSHR miss cycles
system.cpu.icache.ReadReq_mshr_miss_rate::.switch_cpus.inst     0.000040                       # mshr miss rate for ReadReq accesses
system.cpu.icache.ReadReq_mshr_miss_rate::total     0.000040                       # mshr miss rate for ReadReq accesses
system.cpu.icache.ReadReq_avg_mshr_miss_latency::.switch_cpus.inst        85918                       # average ReadReq mshr miss latency
system.cpu.icache.ReadReq_avg_mshr_miss_latency::total        85918                       # average ReadReq mshr miss latency
system.cpu.icache.power_state.pwrStateResidencyTicks::UNDEFINED 570228122512                       # Cumulative time (in ticks) in various power states
system.cpu.icache.tags.tagsinuse             8.995630                       # Cycle average of tags in use
system.cpu.icache.tags.total_refs                   0                       # Total number of references to valid blocks.
system.cpu.icache.tags.sampled_refs                 0                       # Sample count of references to valid blocks.
system.cpu.icache.tags.avg_refs                   nan                       # Average number of references to valid blocks.
system.cpu.icache.tags.warmup_cycle      569785974595                       # Cycle when the warmup percentage was hit.
system.cpu.icache.tags.occ_blocks::.cpu.inst     2.999970                       # Average occupied blocks per requestor
system.cpu.icache.tags.occ_blocks::.switch_cpus.inst     5.995661                       # Average occupied blocks per requestor
system.cpu.icache.tags.occ_percent::.cpu.inst     0.005859                       # Average percentage of cache occupancy
system.cpu.icache.tags.occ_percent::.switch_cpus.inst     0.011710                       # Average percentage of cache occupancy
system.cpu.icache.tags.occ_percent::total     0.017570                       # Average percentage of cache occupancy
system.cpu.icache.tags.occ_task_id_blocks::1024            9                       # Occupied blocks per task id
system.cpu.icache.tags.age_task_id_blocks_1024::2            9                       # Occupied blocks per task id
system.cpu.icache.tags.occ_task_id_percent::1024     0.017578                       # Percentage of cache occupancy per task id
system.cpu.icache.tags.tag_accesses           1214681                       # Number of tag accesses
system.cpu.icache.tags.data_accesses          1214681                       # Number of data accesses
system.cpu.icache.tags.power_state.pwrStateResidencyTicks::UNDEFINED 570228122512                       # Cumulative time (in ticks) in various power states
system.cpu.itb.instHits                             0                       # ITB inst hits
system.cpu.itb.instMisses                           0                       # ITB inst misses
system.cpu.itb.readHits                             0                       # DTB read hits
system.cpu.itb.readMisses                           0                       # DTB read misses
system.cpu.itb.writeHits                            0                       # DTB write hits
system.cpu.itb.writeMisses                          0                       # DTB write misses
system.cpu.itb.inserts                              0                       # Number of times an entry is inserted into the TLB
system.cpu.itb.flushTlb                             2                       # Number of times complete TLB was flushed
system.cpu.itb.flushTlbMva                          0                       # Number of times TLB was flushed by MVA
system.cpu.itb.flushTlbMvaAsid                      0                       # Number of times TLB was flushed by MVA & ASID
system.cpu.itb.flushTlbAsid                         0                       # Number of times TLB was flushed by ASID
system.cpu.itb.flushedEntries                       0                       # Number of entries that have been flushed from TLB
system.cpu.itb.alignFaults                          0                       # Number of TLB faults due to alignment restrictions
system.cpu.itb.prefetchFaults                       0                       # Number of TLB faults due to prefetch
system.cpu.itb.domainFaults                         0                       # Number of TLB faults due to domain restrictions
system.cpu.itb.permsFaults                          0                       # Number of TLB faults due to permissions restrictions
system.cpu.itb.readAccesses                         0                       # DTB read accesses
system.cpu.itb.writeAccesses                        0                       # DTB write accesses
system.cpu.itb.instAccesses                         0                       # ITB inst accesses
system.cpu.itb.hits                                 0                       # Total TLB (inst and data) hits
system.cpu.itb.misses                               0                       # Total TLB (inst and data) misses
system.cpu.itb.accesses                             0                       # Total TLB (inst and data) accesses
system.cpu.itb.stage2_mmu.stage2_tlb.instHits            0                       # ITB inst hits
system.cpu.itb.stage2_mmu.stage2_tlb.instMisses            0                       # ITB inst misses
system.cpu.itb.stage2_mmu.stage2_tlb.readHits            0                       # DTB read hits
system.cpu.itb.stage2_mmu.stage2_tlb.readMisses            0                       # DTB read misses
system.cpu.itb.stage2_mmu.stage2_tlb.writeHits            0                       # DTB write hits
system.cpu.itb.stage2_mmu.stage2_tlb.writeMisses            0                       # DTB write misses
system.cpu.itb.stage2_mmu.stage2_tlb.inserts            0                       # Number of times an entry is inserted into the TLB
system.cpu.itb.stage2_mmu.stage2_tlb.flushTlb            0                       # Number of times complete TLB was flushed
system.cpu.itb.stage2_mmu.stage2_tlb.flushTlbMva            0                       # Number of times TLB was flushed by MVA
system.cpu.itb.stage2_mmu.stage2_tlb.flushTlbMvaAsid            0                       # Number of times TLB was flushed by MVA & ASID
system.cpu.itb.stage2_mmu.stage2_tlb.flushTlbAsid            0                       # Number of times TLB was flushed by ASID
system.cpu.itb.stage2_mmu.stage2_tlb.flushedEntries            0                       # Number of entries that have been flushed from TLB
system.cpu.itb.stage2_mmu.stage2_tlb.alignFaults            0                       # Number of TLB faults due to alignment restrictions
system.cpu.itb.stage2_mmu.stage2_tlb.prefetchFaults            0                       # Number of TLB faults due to prefetch
system.cpu.itb.stage2_mmu.stage2_tlb.domainFaults            0                       # Number of TLB faults due to domain restrictions
system.cpu.itb.stage2_mmu.stage2_tlb.permsFaults            0                       # Number of TLB faults due to permissions restrictions
system.cpu.itb.stage2_mmu.stage2_tlb.readAccesses            0                       # DTB read accesses
system.cpu.itb.stage2_mmu.stage2_tlb.writeAccesses            0                       # DTB write accesses
system.cpu.itb.stage2_mmu.stage2_tlb.instAccesses            0                       # ITB inst accesses
system.cpu.itb.stage2_mmu.stage2_tlb.hits            0                       # Total TLB (inst and data) hits
system.cpu.itb.stage2_mmu.stage2_tlb.misses            0                       # Total TLB (inst and data) misses
system.cpu.itb.stage2_mmu.stage2_tlb.accesses            0                       # Total TLB (inst and data) accesses
system.cpu.itb.stage2_mmu.stage2_tlb.walker.walks            0                       # Table walker walks requested
system.cpu.itb.stage2_mmu.stage2_tlb.walker.requestOrigin_Requested::Data            0                       # Table walker requests started/completed, data/inst
system.cpu.itb.stage2_mmu.stage2_tlb.walker.requestOrigin_Requested::Inst            0                       # Table walker requests started/completed, data/inst
system.cpu.itb.stage2_mmu.stage2_tlb.walker.requestOrigin_Requested::total            0                       # Table walker requests started/completed, data/inst
system.cpu.itb.stage2_mmu.stage2_tlb.walker.requestOrigin_Completed::Data            0                       # Table walker requests started/completed, data/inst
system.cpu.itb.stage2_mmu.stage2_tlb.walker.requestOrigin_Completed::Inst            0                       # Table walker requests started/completed, data/inst
system.cpu.itb.stage2_mmu.stage2_tlb.walker.requestOrigin_Completed::total            0                       # Table walker requests started/completed, data/inst
system.cpu.itb.stage2_mmu.stage2_tlb.walker.requestOrigin::total            0                       # Table walker requests started/completed, data/inst
system.cpu.itb.stage2_mmu.stage2_tlb.walker.power_state.pwrStateResidencyTicks::UNDEFINED 570228122512                       # Cumulative time (in ticks) in various power states
system.cpu.itb.walker.walks                         0                       # Table walker walks requested
system.cpu.itb.walker.requestOrigin_Requested::Data            0                       # Table walker requests started/completed, data/inst
system.cpu.itb.walker.requestOrigin_Requested::Inst            0                       # Table walker requests started/completed, data/inst
system.cpu.itb.walker.requestOrigin_Requested::total            0                       # Table walker requests started/completed, data/inst
system.cpu.itb.walker.requestOrigin_Completed::Data            0                       # Table walker requests started/completed, data/inst
system.cpu.itb.walker.requestOrigin_Completed::Inst            0                       # Table walker requests started/completed, data/inst
system.cpu.itb.walker.requestOrigin_Completed::total            0                       # Table walker requests started/completed, data/inst
system.cpu.itb.walker.requestOrigin::total            0                       # Table walker requests started/completed, data/inst
system.cpu.itb.walker.power_state.pwrStateResidencyTicks::UNDEFINED 570228122512                       # Cumulative time (in ticks) in various power states
system.cpu.power_state.numTransitions               1                       # Number of power state transitions
system.cpu.power_state.pwrStateResidencyTicks::ON 569785984000                       # Cumulative time (in ticks) in various power states
system.cpu.power_state.pwrStateResidencyTicks::OFF    442138512                       # Cumulative time (in ticks) in various power states
system.cpu.thread_0.numInsts                        0                       # Number of Instructions committed
system.cpu.thread_0.numOps                          0                       # Number of Ops committed
system.cpu.thread_0.numMemRefs                      0                       # Number of Memory References
system.cpu_clk_domain.clock                       323                       # Clock period in ticks
system.cpu_voltage_domain.voltage                   1                       # Voltage in Volts
system.l2.demand_hits::.switch_cpus.data        19391                       # number of demand (read+write) hits
system.l2.demand_hits::total                    19391                       # number of demand (read+write) hits
system.l2.overall_hits::.switch_cpus.data        19391                       # number of overall hits
system.l2.overall_hits::total                   19391                       # number of overall hits
system.l2.demand_misses::.cpu.inst                  3                       # number of demand (read+write) misses
system.l2.demand_misses::.cpu.data                  5                       # number of demand (read+write) misses
system.l2.demand_misses::.switch_cpus.inst            6                       # number of demand (read+write) misses
[...]
system.switch_cpus.fetch.icacheStallCycles      1150858                       # Number of cycles fetch is stalled on an Icache miss
system.switch_cpus.fetch.insts               11106013                       # Number of instructions fetch has processed
system.switch_cpus.fetch.branches             1597635                       # Number of branches that fetch encountered
system.switch_cpus.fetch.predictedBranches       921936                       # Number of branches that fetch has predicted taken
system.switch_cpus.fetch.cycles               4882699                       # Number of cycles fetch has run and was not squashing or blocked
system.switch_cpus.fetch.squashCycles           29542                       # Number of cycles fetch has spent squashing
system.switch_cpus.fetch.miscStallCycles          172                       # Number of cycles fetch has spent waiting on interrupts,or bad addresses, or out of MSHRs
system.switch_cpus.fetch.pendingTrapStallCycles           52                       # Number of stall cycles due to pending traps
system.switch_cpus.fetch.icacheWaitRetryStallCycles            1                       # Number of stall cycles due to full MSHR
system.switch_cpus.fetch.cacheLines           1137945                       # Number of cache lines fetched
system.switch_cpus.fetch.icacheSquashes          3758                       # Number of outstanding Icache misses that were squashed
system.switch_cpus.fetch.nisnDist::samples      6048553                       # Number of instructions fetched each cycle (Total)
system.switch_cpus.fetch.nisnDist::mean      1.836216                       # Number of instructions fetched each cycle (Total)
system.switch_cpus.fetch.nisnDist::stdev     2.838490                       # Number of instructions fetched each cycle (Total)
system.switch_cpus.fetch.nisnDist::underflows            0      0.00%      0.00% # Number of instructions fetched each cycle (Total)
system.switch_cpus.fetch.nisnDist::0          3856453     63.76%     63.76% # Number of instructions fetched each cycle (Total)
system.switch_cpus.fetch.nisnDist::1           233592      3.86%     67.62% # Number of instructions fetched each cycle (Total)
system.switch_cpus.fetch.nisnDist::2           140029      2.32%     69.94% # Number of instructions fetched each cycle (Total)
system.switch_cpus.fetch.nisnDist::3           279215      4.62%     74.55% # Number of instructions fetched each cycle (Total)
system.switch_cpus.fetch.nisnDist::4           378707      6.26%     80.81% # Number of instructions fetched each cycle (Total)
system.switch_cpus.fetch.nisnDist::5            98927      1.64%     82.45% # Number of instructions fetched each cycle (Total)
system.switch_cpus.fetch.nisnDist::6           276999      4.58%     87.03% # Number of instructions fetched each cycle (Total)
system.switch_cpus.fetch.nisnDist::7           193353      3.20%     90.22% # Number of instructions fetched each cycle (Total)
system.switch_cpus.fetch.nisnDist::8           591278      9.78%    100.00% # Number of instructions fetched each cycle (Total)
system.switch_cpus.fetch.nisnDist::overflows            0      0.00%    100.00% # Number of instructions fetched each cycle (Total)
system.switch_cpus.fetch.nisnDist::min_value            0                       # Number of instructions fetched each cycle (Total)
system.switch_cpus.fetch.nisnDist::max_value            8                       # Number of instructions fetched each cycle (Total)
system.switch_cpus.fetch.nisnDist::total      6048553                       # Number of instructions fetched each cycle (Total)
system.switch_cpus.fetch.branchRate          0.263656                       # Number of branch fetches per cycle
system.switch_cpus.fetch.rate                1.832812                       # Number of inst fetches per cycle
system.switch_cpus.itb.instHits                     0                       # ITB inst hits
system.switch_cpus.itb.instMisses                   0                       # ITB inst misses
system.switch_cpus.itb.readHits                     0                       # DTB read hits
system.switch_cpus.itb.readMisses                   0                       # DTB read misses
system.switch_cpus.itb.writeHits                    0                       # DTB write hits
system.switch_cpus.itb.writeMisses                  0                       # DTB write misses
system.switch_cpus.itb.inserts                      0                       # Number of times an entry is inserted into the TLB
system.switch_cpus.itb.flushTlb                     0                       # Number of times complete TLB was flushed
system.switch_cpus.itb.flushTlbMva                  0                       # Number of times TLB was flushed by MVA
system.switch_cpus.itb.flushTlbMvaAsid              0                       # Number of times TLB was flushed by MVA & ASID
system.switch_cpus.itb.flushTlbAsid                 0                       # Number of times TLB was flushed by ASID
system.switch_cpus.itb.flushedEntries               0                       # Number of entries that have been flushed from TLB
system.switch_cpus.itb.alignFaults                  0                       # Number of TLB faults due to alignment restrictions
system.switch_cpus.itb.prefetchFaults               0                       # Number of TLB faults due to prefetch
system.switch_cpus.itb.domainFaults                 0                       # Number of TLB faults due to domain restrictions
system.switch_cpus.itb.permsFaults                  0                       # Number of TLB faults due to permissions restrictions
system.switch_cpus.itb.readAccesses                 0                       # DTB read accesses
system.switch_cpus.itb.writeAccesses                0                       # DTB write accesses
system.switch_cpus.itb.instAccesses                 0                       # ITB inst accesses
system.switch_cpus.itb.hits                         0                       # Total TLB (inst and data) hits
system.switch_cpus.itb.misses                       0                       # Total TLB (inst and data) misses
system.switch_cpus.itb.accesses                     0                       # Total TLB (inst and data) accesses
system.switch_cpus.itb.stage2_mmu.stage2_tlb.instHits            0                       # ITB inst hits
system.switch_cpus.itb.stage2_mmu.stage2_tlb.instMisses            0                       # ITB inst misses
system.switch_cpus.itb.stage2_mmu.stage2_tlb.readHits            0                       # DTB read hits
system.switch_cpus.itb.stage2_mmu.stage2_tlb.readMisses            0                       # DTB read misses
system.switch_cpus.itb.stage2_mmu.stage2_tlb.writeHits            0                       # DTB write hits
system.switch_cpus.itb.stage2_mmu.stage2_tlb.writeMisses            0                       # DTB write misses
system.switch_cpus.itb.stage2_mmu.stage2_tlb.inserts            0                       # Number of times an entry is inserted into the TLB
system.switch_cpus.itb.stage2_mmu.stage2_tlb.flushTlb            0                       # Number of times complete TLB was flushed
system.switch_cpus.itb.stage2_mmu.stage2_tlb.flushTlbMva            0                       # Number of times TLB was flushed by MVA
system.switch_cpus.itb.stage2_mmu.stage2_tlb.flushTlbMvaAsid            0                       # Number of times TLB was flushed by MVA & ASID
system.switch_cpus.itb.stage2_mmu.stage2_tlb.flushTlbAsid            0                       # Number of times TLB was flushed by ASID
system.switch_cpus.itb.stage2_mmu.stage2_tlb.flushedEntries            0                       # Number of entries that have been flushed from TLB
system.switch_cpus.itb.stage2_mmu.stage2_tlb.alignFaults            0                       # Number of TLB faults due to alignment restrictions
system.switch_cpus.itb.stage2_mmu.stage2_tlb.prefetchFaults            0                       # Number of TLB faults due to prefetch
system.switch_cpus.itb.stage2_mmu.stage2_tlb.domainFaults            0                       # Number of TLB faults due to domain restrictions
system.switch_cpus.itb.stage2_mmu.stage2_tlb.permsFaults            0                       # Number of TLB faults due to permissions restrictions
system.switch_cpus.itb.stage2_mmu.stage2_tlb.readAccesses            0                       # DTB read accesses
system.switch_cpus.itb.stage2_mmu.stage2_tlb.writeAccesses            0                       # DTB write accesses
system.switch_cpus.itb.stage2_mmu.stage2_tlb.instAccesses            0                       # ITB inst accesses
system.switch_cpus.itb.stage2_mmu.stage2_tlb.hits            0                       # Total TLB (inst and data) hits
system.switch_cpus.itb.stage2_mmu.stage2_tlb.misses            0                       # Total TLB (inst and data) misses
system.switch_cpus.itb.stage2_mmu.stage2_tlb.accesses            0                       # Total TLB (inst and data) accesses
system.switch_cpus.itb.stage2_mmu.stage2_tlb.walker.walks            0                       # Table walker walks requested
system.switch_cpus.itb.stage2_mmu.stage2_tlb.walker.requestOrigin_Requested::Data            0                       # Table walker requests started/completed, data/inst
system.switch_cpus.itb.stage2_mmu.stage2_tlb.walker.requestOrigin_Requested::Inst            0                       # Table walker requests started/completed, data/inst
system.switch_cpus.itb.stage2_mmu.stage2_tlb.walker.requestOrigin_Requested::total            0                       # Table walker requests started/completed, data/inst
system.switch_cpus.itb.stage2_mmu.stage2_tlb.walker.requestOrigin_Completed::Data            0                       # Table walker requests started/completed, data/inst
system.switch_cpus.itb.stage2_mmu.stage2_tlb.walker.requestOrigin_Completed::Inst            0                       # Table walker requests started/completed, data/inst
system.switch_cpus.itb.stage2_mmu.stage2_tlb.walker.requestOrigin_Completed::total            0                       # Table walker requests started/completed, data/inst
system.switch_cpus.itb.stage2_mmu.stage2_tlb.walker.requestOrigin::total            0                       # Table walker requests started/completed, data/inst
system.switch_cpus.itb.stage2_mmu.stage2_tlb.walker.power_state.pwrStateResidencyTicks::UNDEFINED   1957234650                       # Cumulative time (in ticks) in various power states
system.switch_cpus.itb.walker.walks                 0                       # Table walker walks requested
system.switch_cpus.itb.walker.requestOrigin_Requested::Data            0                       # Table walker requests started/completed, data/inst
system.switch_cpus.itb.walker.requestOrigin_Requested::Inst            0                       # Table walker requests started/completed, data/inst
system.switch_cpus.itb.walker.requestOrigin_Requested::total            0                       # Table walker requests started/completed, data/inst
system.switch_cpus.itb.walker.requestOrigin_Completed::Data            0                       # Table walker requests started/completed, data/inst
system.switch_cpus.itb.walker.requestOrigin_Completed::Inst            0                       # Table walker requests started/completed, data/inst
system.switch_cpus.itb.walker.requestOrigin_Completed::total            0                       # Table walker requests started/completed, data/inst
system.switch_cpus.itb.walker.requestOrigin::total            0                       # Table walker requests started/completed, data/inst
system.switch_cpus.itb.walker.power_state.pwrStateResidencyTicks::UNDEFINED   1957234650                       # Cumulative time (in ticks) in various power states
system.switch_cpus.lsq0.forwLoads             1423813                       # Number of loads that had data forwarded from stores
system.switch_cpus.lsq0.squashedLoads          241350                       # Number of loads squashed
system.switch_cpus.lsq0.ignoredResponses         1375                       # Number of memory responses ignored because the instruction is squashed
system.switch_cpus.lsq0.memOrderViolation          336                       # Number of memory ordering violations
system.switch_cpus.lsq0.squashedStores          49528                       # Number of stores squashed
system.switch_cpus.lsq0.rescheduledLoads            2                       # Number of loads that were rescheduled
system.switch_cpus.lsq0.blockedByCache             84                       # Number of times an access to memory failed due to the cache being blocked
system.switch_cpus.power_state.pwrStateResidencyTicks::OFF   1957234650                       # Cumulative time (in ticks) in various power states
system.switch_cpus.rename.squashCycles          14713                       # Number of cycles rename is squashing
system.switch_cpus.rename.idleCycles           637137                       # Number of cycles rename is idle
system.switch_cpus.rename.blockCycles          719436                       # Number of cycles rename is blocking
system.switch_cpus.rename.serializeStallCycles         1347                       # count of cycles rename stalledfor serializing inst
system.switch_cpus.rename.runCycles           1444471                       # Number of cycles rename is running
system.switch_cpus.rename.unblockCycles       3231449                       # Number of cycles rename is unblocking
system.switch_cpus.rename.renamedInsts       10622448                       # Number of instructions processed by rename
system.switch_cpus.rename.ROBFullEvents           267                       # Number of times rename has blocked due to ROB full
system.switch_cpus.rename.IQFullEvents          87285                       # Number of times rename has blocked due to IQ full
system.switch_cpus.rename.LQFullEvents        3126452                       # Number of times rename has blocked due to LQ full
system.switch_cpus.rename.SQFullEvents          40560                       # Number of times rename has blocked due to SQ full
system.switch_cpus.rename.renamedOperands     12961952                       # Number of destination operands rename has renamed
system.switch_cpus.rename.lookups            15710695                       # Number of register rename lookups that rename has made
system.switch_cpus.rename.intLookups         11196501                       # Number of integer rename lookups
system.switch_cpus.rename.vecLookups               40                       # Number of vector rename lookups
system.switch_cpus.rename.committedMaps      12266145                       # Number of HB maps that are committed
system.switch_cpus.rename.undoneMaps           695783                       # Number of HB maps that are undone due to squashing
system.switch_cpus.rename.serializing              16                       # count of serializing insts renamed
system.switch_cpus.rename.tempSerializing            5                       # count of temporary serializing insts renamed
system.switch_cpus.rename.skidInsts           1876622                       # count of insts added to the skid buffer
system.switch_cpus.rob.reads                 15685598                       # The number of ROB reads
system.switch_cpus.rob.writes                21223269                       # The number of ROB writes
system.switch_cpus.thread_0.numInsts         10000001                       # Number of Instructions committed
system.switch_cpus.thread_0.numOps           10000167                       # Number of Ops committed
system.switch_cpus.thread_0.numMemRefs              0                       # Number of Memory References
system.tol2bus.trans_dist::ReadResp            173813                       # Transaction distribution
system.tol2bus.trans_dist::WritebackDirty       132074                       # Transaction distribution
system.tol2bus.trans_dist::CleanEvict           54231                       # Transaction distribution
system.tol2bus.trans_dist::HardPFReq             7477                       # Transaction distribution
system.tol2bus.trans_dist::ReadExReq             5008                       # Transaction distribution
system.tol2bus.trans_dist::ReadExResp            5008                       # Transaction distribution
system.tol2bus.trans_dist::ReadCleanReq            90                       # Transaction distribution
system.tol2bus.trans_dist::ReadSharedReq       173722                       # Transaction distribution
system.tol2bus.pkt_count_system.cpu.icache.mem_side_port::system.l2.cpu_side_port          180                       # Packet count per connected requestor and responder (bytes)
system.tol2bus.pkt_count_system.cpu.dcache.mem_side_port::system.l2.cpu_side_port       536192                       # Packet count per connected requestor and responder (bytes)
system.tol2bus.pkt_count::total                536372                       # Packet count per connected requestor and responder (bytes)
system.tol2bus.pkt_size_system.cpu.icache.mem_side_port::system.l2.cpu_side_port        11520                       # Cumulative packet size per connected requestor and responder (bytes)
system.tol2bus.pkt_size_system.cpu.dcache.mem_side_port::system.l2.cpu_side_port     39777024                       # Cumulative packet size per connected requestor and responder (bytes)
system.tol2bus.pkt_size::total               39788544                       # Cumulative packet size per connected requestor and responder (bytes)
system.tol2bus.snoops                           15051                       # Total snoops (count)
system.tol2bus.snoopTraffic                      6016                       # Total snoop traffic (bytes)
system.tol2bus.snoop_fanout::samples           193871                       # Request fanout histogram
system.tol2bus.snoop_fanout::mean            0.000516                       # Request fanout histogram
system.tol2bus.snoop_fanout::stdev           0.022706                       # Request fanout histogram
system.tol2bus.snoop_fanout::underflows             0      0.00%      0.00% # Request fanout histogram
system.tol2bus.snoop_fanout::0                 193771     99.95%     99.95% # Request fanout histogram
system.tol2bus.snoop_fanout::1                    100      0.05%    100.00% # Request fanout histogram
system.tol2bus.snoop_fanout::2                      0      0.00%    100.00% # Request fanout histogram
system.tol2bus.snoop_fanout::overflows              0      0.00%    100.00% # Request fanout histogram
system.tol2bus.snoop_fanout::min_value              0                       # Request fanout histogram
system.tol2bus.snoop_fanout::max_value              1                       # Request fanout histogram
system.tol2bus.snoop_fanout::total             193871                       # Request fanout histogram
system.tol2bus.power_state.pwrStateResidencyTicks::UNDEFINED   1957234650                       # Cumulative time (in ticks) in various power states
system.tol2bus.reqLayer0.occupancy          286067857                       # Layer occupancy (ticks)
system.tol2bus.reqLayer0.utilization             14.6                       # Layer utilization (%)
system.tol2bus.respLayer0.occupancy            145350                       # Layer occupancy (ticks)
system.tol2bus.respLayer0.utilization             0.0                       # Layer utilization (%)
system.tol2bus.respLayer1.occupancy         288650565                       # Layer occupancy (ticks)
system.tol2bus.respLayer1.utilization            14.7                       # Layer utilization (%)
system.voltage_domain.voltage                       1                       # Voltage in Volts

---------- End Simulation Statistics   ----------
