
---------- Begin Simulation Statistics ----------
final_tick                               618001691067                       # Number of ticks from beginning of simulation (restored from checkpoints and never reset)
host_inst_rate                                 440287                       # Simulator instruction rate (inst/s)
host_mem_usage                               16965260                       # Number of bytes of host memory used
host_op_rate                                   440277                       # Simulator op (including micro ops) rate (op/s)
host_seconds                                     2.27                       # Real time elapsed on the host
host_tick_rate                               94615898                       # Simulator tick rate (ticks/s)
sim_freq                                 1000000000000                       # Frequency of simulated ticks
sim_insts                                     1000033                       # Number of instructions simulated
sim_ops                                       1000033                       # Number of ops (including micro ops) simulated
sim_seconds                                  0.000215                       # Number of seconds simulated
sim_ticks                                   214909067                       # Number of ticks simulated
system.cpu.Branches                                 4                       # Number of branches fetched
system.cpu.committedInsts                          30                       # Number of instructions committed
system.cpu.committedOps                            30                       # Number of ops (including micro ops) committed
system.cpu.idle_fraction                            0                       # Percentage of idle cycles
system.cpu.not_idle_fraction                        1                       # Percentage of non-idle cycles
system.cpu.numCycles                               30                       # number of cpu cycles simulated
system.cpu.numWorkItemsCompleted                    0                       # number of work items this cpu completed
system.cpu.numWorkItemsStarted                      0                       # number of work items this cpu started
system.cpu.num_busy_cycles                         30                       # Number of busy cycles
system.cpu.num_cc_register_reads                   12                       # number of times the CC registers were read
system.cpu.num_cc_register_writes                   9                       # number of times the CC registers were written
system.cpu.num_conditional_control_insts            4                       # number of instructions that are conditional controls
system.cpu.num_fp_alu_accesses                      0                       # Number of float alu accesses
system.cpu.num_fp_insts                             0                       # number of float instructions
system.cpu.num_fp_register_reads                    0                       # number of times the floating registers were read
system.cpu.num_fp_register_writes                   0                       # number of times the floating registers were written
system.cpu.num_func_calls                           0                       # number of times a function call or return occured
system.cpu.num_idle_cycles                          0                       # Number of idle cycles
system.cpu.num_int_alu_accesses                    26                       # Number of integer alu accesses
system.cpu.num_int_insts                           26                       # number of integer instructions
system.cpu.num_int_register_reads                  33                       # number of times the integer registers were read
system.cpu.num_int_register_writes                 22                       # number of times the integer registers were written
system.cpu.num_load_insts                          12                       # Number of load instructions
system.cpu.num_mem_refs                            16                       # number of memory refs
system.cpu.num_store_insts                          4                       # Number of store instructions
system.cpu.num_vec_alu_accesses                     0                       # Number of vector alu accesses
system.cpu.num_vec_insts                            0                       # number of vector instructions
system.cpu.num_vec_register_reads                   0                       # number of times the vector registers were read
system.cpu.num_vec_register_writes                  0                       # number of times the vector registers were written
system.cpu.op_class::No_OpClass                     0      0.00%      0.00% # Class of executed instruction
system.cpu.op_class::IntAlu                        14     46.67%     46.67% # Class of executed instruction
system.cpu.op_class::IntMult                        0      0.00%     46.67% # Class of executed instruction
system.cpu.op_class::IntDiv                         0      0.00%     46.67% # Class of executed instruction
system.cpu.op_class::FloatAdd                       0      0.00%     46.67% # Class of executed instruction
system.cpu.op_class::FloatCmp                       0      0.00%     46.67% # Class of executed instruction
system.cpu.op_class::FloatCvt                       0      0.00%     46.67% # Class of executed instruction
system.cpu.op_class::FloatMult                      0      0.00%     46.67% # Class of executed instruction
system.cpu.op_class::FloatMultAcc                   0      0.00%     46.67% # Class of executed instruction
system.cpu.op_class::FloatDiv                       0      0.00%     46.67% # Class of executed instruction
system.cpu.op_class::FloatMisc                      0      0.00%     46.67% # Class of executed instruction
system.cpu.op_class::FloatSqrt                      0      0.00%     46.67% # Class of executed instruction
system.cpu.op_class::SimdAdd                        0      0.00%     46.67% # Class of executed instruction
system.cpu.op_class::SimdAddAcc                     0      0.00%     46.67% # Class of executed instruction
system.cpu.op_class::SimdAlu                        0      0.00%     46.67% # Class of executed instruction
system.cpu.op_class::SimdCmp                        0      0.00%     46.67% # Class of executed instruction
system.cpu.op_class::SimdCvt                        0      0.00%     46.67% # Class of executed instruction
system.cpu.op_class::SimdMisc                       0      0.00%     46.67% # Class of executed instruction
system.cpu.op_class::SimdMult                       0      0.00%     46.67% # Class of executed instruction
system.cpu.op_class::SimdMultAcc                    0      0.00%     46.67% # Class of executed instruction
system.cpu.op_class::SimdShift                      0      0.00%     46.67% # Class of executed instruction
system.cpu.op_class::SimdShiftAcc                   0      0.00%     46.67% # Class of executed instruction
system.cpu.op_class::SimdDiv                        0      0.00%     46.67% # Class of executed instruction
system.cpu.op_class::SimdSqrt                       0      0.00%     46.67% # Class of executed instruction
system.cpu.op_class::SimdFloatAdd                   0      0.00%     46.67% # Class of executed instruction
system.cpu.op_class::SimdFloatAlu                   0      0.00%     46.67% # Class of executed instruction
system.cpu.op_class::SimdFloatCmp                   0      0.00%     46.67% # Class of executed instruction
system.cpu.op_class::SimdFloatCvt                   0      0.00%     46.67% # Class of executed instruction
system.cpu.op_class::SimdFloatDiv                   0      0.00%     46.67% # Class of executed instruction
system.cpu.op_class::SimdFloatMisc                  0      0.00%     46.67% # Class of executed instruction
system.cpu.op_class::SimdFloatMult                  0      0.00%     46.67% # Class of executed instruction
system.cpu.op_class::SimdFloatMultAcc               0      0.00%     46.67% # Class of executed instruction
system.cpu.op_class::SimdFloatSqrt                  0      0.00%     46.67% # Class of executed instruction
system.cpu.op_class::SimdReduceAdd                  0      0.00%     46.67% # Class of executed instruction
system.cpu.op_class::SimdReduceAlu                  0      0.00%     46.67% # Class of executed instruction
system.cpu.op_class::SimdReduceCmp                  0      0.00%     46.67% # Class of executed instruction
system.cpu.op_class::SimdFloatReduceAdd             0      0.00%     46.67% # Class of executed instruction
system.cpu.op_class::SimdFloatReduceCmp             0      0.00%     46.67% # Class of executed instruction
system.cpu.op_class::SimdAes                        0      0.00%     46.67% # Class of executed instruction
system.cpu.op_class::SimdAesMix                     0      0.00%     46.67% # Class of executed instruction
system.cpu.op_class::SimdSha1Hash                   0      0.00%     46.67% # Class of executed instruction
system.cpu.op_class::SimdSha1Hash2                  0      0.00%     46.67% # Class of executed instruction
system.cpu.op_class::SimdSha256Hash                 0      0.00%     46.67% # Class of executed instruction
system.cpu.op_class::SimdSha256Hash2                0      0.00%     46.67% # Class of executed instruction
system.cpu.op_class::SimdShaSigma2                  0      0.00%     46.67% # Class of executed instruction
system.cpu.op_class::SimdShaSigma3                  0      0.00%     46.67% # Class of executed instruction
system.cpu.op_class::SimdPredAlu                    0      0.00%     46.67% # Class of executed instruction
system.cpu.op_class::MemRead                       12     40.00%     86.67% # Class of executed instruction
system.cpu.op_class::MemWrite                       4     13.33%    100.00% # Class of executed instruction
system.cpu.op_class::FloatMemRead                   0      0.00%    100.00% # Class of executed instruction
system.cpu.op_class::FloatMemWrite                  0      0.00%    100.00% # Class of executed instruction
system.cpu.op_class::IprAccess                      0      0.00%    100.00% # Class of executed instruction
system.cpu.op_class::InstPrefetch                   0      0.00%    100.00% # Class of executed instruction
system.cpu.op_class::total                         30                       # Class of executed instruction
system.cpu.workload.numSyscalls                     0                       # Number of system calls
system.membus.snoop_filter.hit_multi_requests            0                       # Number of requests hitting in the snoop filter with multiple (>1) holders of the requested data.
system.membus.snoop_filter.hit_multi_snoops            0                       # Number of snoops hitting in the snoop filter with multiple (>1) holders of the requested data.
system.membus.snoop_filter.hit_single_requests            0                       # Number of requests hitting in the snoop filter with a single holder of the requested data.
system.membus.snoop_filter.hit_single_snoops            0                       # Number of snoops hitting in the snoop filter with a single holder of the requested data.
system.membus.snoop_filter.tot_requests          2326                       # Total number of requests made to the snoop filter.
system.membus.snoop_filter.tot_snoops               0                       # Total number of snoops made to the snoop filter.
system.switch_cpus.cc_regfile_reads            477339                       # number of cc regfile reads
system.switch_cpus.cc_regfile_writes           477531                       # number of cc regfile writes
system.switch_cpus.committedInsts             1000003                       # Number of Instructions Simulated
system.switch_cpus.committedOps               1000003                       # Number of Ops (including micro ops) Simulated
system.switch_cpus.cpi                       0.665320                       # CPI: Cycles Per Instruction
system.switch_cpus.cpi_total                 0.665320                       # CPI: Total CPI of All Threads
system.switch_cpus.idleCycles                     473                       # Total number of cycles that the CPU has spent unscheduled due to idling
system.switch_cpus.iew.branchMispredicts          659                       # Number of branch mispredicts detected at execute
system.switch_cpus.iew.exec_branches           159121                       # Number of branches executed
system.switch_cpus.iew.exec_nop                     7                       # number of nop insts executed
system.switch_cpus.iew.exec_rate             1.520306                       # Inst execution rate
system.switch_cpus.iew.exec_refs               484411                       # number of memory reference insts executed
system.switch_cpus.iew.exec_stores              46305                       # Number of stores executed
system.switch_cpus.iew.exec_swp                     0                       # number of swp insts executed
system.switch_cpus.iew.iewBlockCycles            1872                       # Number of cycles IEW is blocking
system.switch_cpus.iew.iewDispLoadInsts        438916                       # Number of dispatched load instructions
system.switch_cpus.iew.iewDispNonSpecInsts            0                       # Number of dispatched non-speculative instructions
system.switch_cpus.iew.iewDispSquashedInsts           13                       # Number of squashed instructions skipped by dispatch
system.switch_cpus.iew.iewDispStoreInsts        47185                       # Number of dispatched store instructions
system.switch_cpus.iew.iewDispatchedInsts      1017333                       # Number of instructions dispatched to IQ
system.switch_cpus.iew.iewExecLoadInsts        438106                       # Number of load instructions executed
system.switch_cpus.iew.iewExecSquashedInsts          338                       # Number of squashed instructions skipped in execute
system.switch_cpus.iew.iewExecutedInsts       1011493                       # Number of executed instructions
system.switch_cpus.iew.iewIQFullEvents              4                       # Number of times the IQ has become full, causing a stall
system.switch_cpus.iew.iewIdleCycles                0                       # Number of cycles IEW is idle
system.switch_cpus.iew.iewLSQFullEvents         75023                       # Number of times the LSQ has become full, causing a stall
system.switch_cpus.iew.iewSquashCycles            672                       # Number of cycles IEW is squashing
system.switch_cpus.iew.iewUnblockCycles         75005                       # Number of cycles IEW is unblocking
system.switch_cpus.iew.memOrderViolationEvents           40                       # Number of memory order violations
system.switch_cpus.iew.predictedNotTakenIncorrect          111                       # Number of branches that were predicted not taken incorrectly
system.switch_cpus.iew.predictedTakenIncorrect          548                       # Number of branches that were predicted taken incorrectly
system.switch_cpus.iew.wb_consumers           1120215                       # num instructions consuming a value
system.switch_cpus.iew.wb_count               1009339                       # cumulative count of insts written-back
system.switch_cpus.iew.wb_fanout             0.715888                       # average fanout of values written-back
system.switch_cpus.iew.wb_producers            801949                       # num instructions producing a value
system.switch_cpus.iew.wb_rate               1.517068                       # insts written-back per cycle
system.switch_cpus.iew.wb_sent                1009527                       # cumulative count of insts sent to commit
system.switch_cpus.int_regfile_reads          1043544                       # number of integer regfile reads
system.switch_cpus.int_regfile_writes          804144                       # number of integer regfile writes
system.switch_cpus.ipc                       1.503036                       # IPC: Instructions Per Cycle
system.switch_cpus.ipc_total                 1.503036                       # IPC: Total IPC of All Threads
system.switch_cpus.iq.FU_type_0::No_OpClass            0      0.00%      0.00% # Type of FU issued
system.switch_cpus.iq.FU_type_0::IntAlu        527136     52.10%     52.10% # Type of FU issued
system.switch_cpus.iq.FU_type_0::IntMult            0      0.00%     52.10% # Type of FU issued
system.switch_cpus.iq.FU_type_0::IntDiv             0      0.00%     52.10% # Type of FU issued
system.switch_cpus.iq.FU_type_0::FloatAdd            0      0.00%     52.10% # Type of FU issued
system.switch_cpus.iq.FU_type_0::FloatCmp            0      0.00%     52.10% # Type of FU issued
system.switch_cpus.iq.FU_type_0::FloatCvt            0      0.00%     52.10% # Type of FU issued
system.switch_cpus.iq.FU_type_0::FloatMult            0      0.00%     52.10% # Type of FU issued
system.switch_cpus.iq.FU_type_0::FloatMultAcc            0      0.00%     52.10% # Type of FU issued
system.switch_cpus.iq.FU_type_0::FloatDiv            0      0.00%     52.10% # Type of FU issued
system.switch_cpus.iq.FU_type_0::FloatMisc            0      0.00%     52.10% # Type of FU issued
system.switch_cpus.iq.FU_type_0::FloatSqrt            0      0.00%     52.10% # Type of FU issued
system.switch_cpus.iq.FU_type_0::SimdAdd            0      0.00%     52.10% # Type of FU issued
system.switch_cpus.iq.FU_type_0::SimdAddAcc            0      0.00%     52.10% # Type of FU issued
system.switch_cpus.iq.FU_type_0::SimdAlu            0      0.00%     52.10% # Type of FU issued
system.switch_cpus.iq.FU_type_0::SimdCmp            0      0.00%     52.10% # Type of FU issued
system.switch_cpus.iq.FU_type_0::SimdCvt            0      0.00%     52.10% # Type of FU issued
system.switch_cpus.iq.FU_type_0::SimdMisc            0      0.00%     52.10% # Type of FU issued
system.switch_cpus.iq.FU_type_0::SimdMult            0      0.00%     52.10% # Type of FU issued
system.switch_cpus.iq.FU_type_0::SimdMultAcc            0      0.00%     52.10% # Type of FU issued
system.switch_cpus.iq.FU_type_0::SimdShift            0      0.00%     52.10% # Type of FU issued
system.switch_cpus.iq.FU_type_0::SimdShiftAcc            0      0.00%     52.10% # Type of FU issued
system.switch_cpus.iq.FU_type_0::SimdDiv            0      0.00%     52.10% # Type of FU issued
system.switch_cpus.iq.FU_type_0::SimdSqrt            0      0.00%     52.10% # Type of FU issued
system.switch_cpus.iq.FU_type_0::SimdFloatAdd            0      0.00%     52.10% # Type of FU issued
system.switch_cpus.iq.FU_type_0::SimdFloatAlu            0      0.00%     52.10% # Type of FU issued
system.switch_cpus.iq.FU_type_0::SimdFloatCmp            0      0.00%     52.10% # Type of FU issued
system.switch_cpus.iq.FU_type_0::SimdFloatCvt            0      0.00%     52.10% # Type of FU issued
system.switch_cpus.iq.FU_type_0::SimdFloatDiv            0      0.00%     52.10% # Type of FU issued
system.switch_cpus.iq.FU_type_0::SimdFloatMisc            0      0.00%     52.10% # Type of FU issued
system.switch_cpus.iq.FU_type_0::SimdFloatMult            0      0.00%     52.10% # Type of FU issued
system.switch_cpus.iq.FU_type_0::SimdFloatMultAcc            0      0.00%     52.10% # Type of FU issued
system.switch_cpus.iq.FU_type_0::SimdFloatSqrt            0      0.00%     52.10% # Type of FU issued
system.switch_cpus.iq.FU_type_0::SimdReduceAdd            0      0.00%     52.10% # Type of FU issued
system.switch_cpus.iq.FU_type_0::SimdReduceAlu            0      0.00%     52.10% # Type of FU issued
system.switch_cpus.iq.FU_type_0::SimdReduceCmp            0      0.00%     52.10% # Type of FU issued
system.switch_cpus.iq.FU_type_0::SimdFloatReduceAdd            0      0.00%     52.10% # Type of FU issued
system.switch_cpus.iq.FU_type_0::SimdFloatReduceCmp            0      0.00%     52.10% # Type of FU issued
system.switch_cpus.iq.FU_type_0::SimdAes            0      0.00%     52.10% # Type of FU issued
system.switch_cpus.iq.FU_type_0::SimdAesMix            0      0.00%     52.10% # Type of FU issued
system.switch_cpus.iq.FU_type_0::SimdSha1Hash            0      0.00%     52.10% # Type of FU issued
system.switch_cpus.iq.FU_type_0::SimdSha1Hash2            0      0.00%     52.10% # Type of FU issued
system.switch_cpus.iq.FU_type_0::SimdSha256Hash            0      0.00%     52.10% # Type of FU issued
system.switch_cpus.iq.FU_type_0::SimdSha256Hash2            0      0.00%     52.10% # Type of FU issued
system.switch_cpus.iq.FU_type_0::SimdShaSigma2            0      0.00%     52.10% # Type of FU issued
system.switch_cpus.iq.FU_type_0::SimdShaSigma3            0      0.00%     52.10% # Type of FU issued
system.switch_cpus.iq.FU_type_0::SimdPredAlu            0      0.00%     52.10% # Type of FU issued
system.switch_cpus.iq.FU_type_0::MemRead       438325     43.32%     95.42% # Type of FU issued
system.switch_cpus.iq.FU_type_0::MemWrite        46374      4.58%    100.00% # Type of FU issued
system.switch_cpus.iq.FU_type_0::FloatMemRead            0      0.00%    100.00% # Type of FU issued
system.switch_cpus.iq.FU_type_0::FloatMemWrite            0      0.00%    100.00% # Type of FU issued
system.switch_cpus.iq.FU_type_0::IprAccess            0      0.00%    100.00% # Type of FU issued
system.switch_cpus.iq.FU_type_0::InstPrefetch            0      0.00%    100.00% # Type of FU issued
system.switch_cpus.iq.FU_type_0::total        1011835                       # Type of FU issued
system.switch_cpus.iq.fp_alu_accesses               0                       # Number of floating point alu accesses
system.switch_cpus.iq.fp_inst_queue_reads            0                       # Number of floating instruction queue reads
system.switch_cpus.iq.fp_inst_queue_wakeup_accesses            0                       # Number of floating instruction queue wakeup accesses
system.switch_cpus.iq.fp_inst_queue_writes            0                       # Number of floating instruction queue writes
system.switch_cpus.iq.fu_busy_cnt               30109                       # FU busy when requested
system.switch_cpus.iq.fu_busy_rate           0.029757                       # FU busy rate (busy events/executed inst)
system.switch_cpus.iq.fu_full::No_OpClass            0      0.00%      0.00% # attempts to use FU when none available
system.switch_cpus.iq.fu_full::IntAlu            6362     21.13%     21.13% # attempts to use FU when none available
system.switch_cpus.iq.fu_full::IntMult              0      0.00%     21.13% # attempts to use FU when none available
system.switch_cpus.iq.fu_full::IntDiv               0      0.00%     21.13% # attempts to use FU when none available
system.switch_cpus.iq.fu_full::FloatAdd             0      0.00%     21.13% # attempts to use FU when none available
system.switch_cpus.iq.fu_full::FloatCmp             0      0.00%     21.13% # attempts to use FU when none available
system.switch_cpus.iq.fu_full::FloatCvt             0      0.00%     21.13% # attempts to use FU when none available
system.switch_cpus.iq.fu_full::FloatMult            0      0.00%     21.13% # attempts to use FU when none available
system.switch_cpus.iq.fu_full::FloatMultAcc            0      0.00%     21.13% # attempts to use FU when none available
system.switch_cpus.iq.fu_full::FloatDiv             0      0.00%     21.13% # attempts to use FU when none available
system.switch_cpus.iq.fu_full::FloatMisc            0      0.00%     21.13% # attempts to use FU when none available
system.switch_cpus.iq.fu_full::FloatSqrt            0      0.00%     21.13% # attempts to use FU when none available
system.switch_cpus.iq.fu_full::SimdAdd              0      0.00%     21.13% # attempts to use FU when none available
system.switch_cpus.iq.fu_full::SimdAddAcc            0      0.00%     21.13% # attempts to use FU when none available
system.switch_cpus.iq.fu_full::SimdAlu              0      0.00%     21.13% # attempts to use FU when none available
system.switch_cpus.iq.fu_full::SimdCmp              0      0.00%     21.13% # attempts to use FU when none available
system.switch_cpus.iq.fu_full::SimdCvt              0      0.00%     21.13% # attempts to use FU when none available
system.switch_cpus.iq.fu_full::SimdMisc             0      0.00%     21.13% # attempts to use FU when none available
system.switch_cpus.iq.fu_full::SimdMult             0      0.00%     21.13% # attempts to use FU when none available
system.switch_cpus.iq.fu_full::SimdMultAcc            0      0.00%     21.13% # attempts to use FU when none available
system.switch_cpus.iq.fu_full::SimdShift            0      0.00%     21.13% # attempts to use FU when none available
system.switch_cpus.iq.fu_full::SimdShiftAcc            0      0.00%     21.13% # attempts to use FU when none available
system.switch_cpus.iq.fu_full::SimdDiv              0      0.00%     21.13% # attempts to use FU when none available
system.switch_cpus.iq.fu_full::SimdSqrt             0      0.00%     21.13% # attempts to use FU when none available
system.switch_cpus.iq.fu_full::SimdFloatAdd            0      0.00%     21.13% # attempts to use FU when none available
system.switch_cpus.iq.fu_full::SimdFloatAlu            0      0.00%     21.13% # attempts to use FU when none available
system.switch_cpus.iq.fu_full::SimdFloatCmp            0      0.00%     21.13% # attempts to use FU when none available
system.switch_cpus.iq.fu_full::SimdFloatCvt            0      0.00%     21.13% # attempts to use FU when none available
system.switch_cpus.iq.fu_full::SimdFloatDiv            0      0.00%     21.13% # attempts to use FU when none available
system.switch_cpus.iq.fu_full::SimdFloatMisc            0      0.00%     21.13% # attempts to use FU when none available
system.switch_cpus.iq.fu_full::SimdFloatMult            0      0.00%     21.13% # attempts to use FU when none available
system.switch_cpus.iq.fu_full::SimdFloatMultAcc            0      0.00%     21.13% # attempts to use FU when none available
system.switch_cpus.iq.fu_full::SimdFloatSqrt            0      0.00%     21.13% # attempts to use FU when none available
system.switch_cpus.iq.fu_full::SimdReduceAdd            0      0.00%     21.13% # attempts to use FU when none available
system.switch_cpus.iq.fu_full::SimdReduceAlu            0      0.00%     21.13% # attempts to use FU when none available
system.switch_cpus.iq.fu_full::SimdReduceCmp            0      0.00%     21.13% # attempts to use FU when none available
system.switch_cpus.iq.fu_full::SimdFloatReduceAdd            0      0.00%     21.13% # attempts to use FU when none available
system.switch_cpus.iq.fu_full::SimdFloatReduceCmp            0      0.00%     21.13% # attempts to use FU when none available
system.switch_cpus.iq.fu_full::SimdAes              0      0.00%     21.13% # attempts to use FU when none available
system.switch_cpus.iq.fu_full::SimdAesMix            0      0.00%     21.13% # attempts to use FU when none available
system.switch_cpus.iq.fu_full::SimdSha1Hash            0      0.00%     21.13% # attempts to use FU when none available
system.switch_cpus.iq.fu_full::SimdSha1Hash2            0      0.00%     21.13% # attempts to use FU when none available
system.switch_cpus.iq.fu_full::SimdSha256Hash            0      0.00%     21.13% # attempts to use FU when none available
system.switch_cpus.iq.fu_full::SimdSha256Hash2            0      0.00%     21.13% # attempts to use FU when none available
system.switch_cpus.iq.fu_full::SimdShaSigma2            0      0.00%     21.13% # attempts to use FU when none available
system.switch_cpus.iq.fu_full::SimdShaSigma3            0      0.00%     21.13% # attempts to use FU when none available
system.switch_cpus.iq.fu_full::SimdPredAlu            0      0.00%     21.13% # attempts to use FU when none available
system.switch_cpus.iq.fu_full::MemRead          23519     78.11%     99.24% # attempts to use FU when none available
system.switch_cpus.iq.fu_full::MemWrite           228      0.76%    100.00% # attempts to use FU when none available
system.switch_cpus.iq.fu_full::FloatMemRead            0      0.00%    100.00% # attempts to use FU when none available
system.switch_cpus.iq.fu_full::FloatMemWrite            0      0.00%    100.00% # attempts to use FU when none available
system.switch_cpus.iq.fu_full::IprAccess            0      0.00%    100.00% # attempts to use FU when none available
system.switch_cpus.iq.fu_full::InstPrefetch            0      0.00%    100.00% # attempts to use FU when none available
system.switch_cpus.iq.int_alu_accesses        1041944                       # Number of integer alu accesses
system.switch_cpus.iq.int_inst_queue_reads      2718640                       # Number of integer instruction queue reads
system.switch_cpus.iq.int_inst_queue_wakeup_accesses      1009339                       # Number of integer instruction queue wakeup accesses
system.switch_cpus.iq.int_inst_queue_writes      1034652                       # Number of integer instruction queue writes
system.switch_cpus.iq.iqInstsAdded            1017326                       # Number of instructions added to the IQ (excludes non-spec)
system.switch_cpus.iq.iqInstsIssued           1011835                       # Number of instructions issued
system.switch_cpus.iq.iqSquashedInstsExamined        17290                       # Number of squashed instructions iterated over during squash; mainly for profiling
system.switch_cpus.iq.iqSquashedInstsIssued           16                       # Number of squashed instructions issued
system.switch_cpus.iq.iqSquashedOperandsExamined        12674                       # Number of squashed operands that are examined and possibly removed from graph
system.switch_cpus.iq.issued_per_cycle::samples       664849                       # Number of insts issued each cycle
system.switch_cpus.iq.issued_per_cycle::mean     1.521902                       # Number of insts issued each cycle
system.switch_cpus.iq.issued_per_cycle::stdev     1.968377                       # Number of insts issued each cycle
system.switch_cpus.iq.issued_per_cycle::underflows            0      0.00%      0.00% # Number of insts issued each cycle
system.switch_cpus.iq.issued_per_cycle::0       344353     51.79%     51.79% # Number of insts issued each cycle
system.switch_cpus.iq.issued_per_cycle::1        68451     10.30%     62.09% # Number of insts issued each cycle
system.switch_cpus.iq.issued_per_cycle::2        56388      8.48%     70.57% # Number of insts issued each cycle
system.switch_cpus.iq.issued_per_cycle::3        65276      9.82%     80.39% # Number of insts issued each cycle
system.switch_cpus.iq.issued_per_cycle::4        63192      9.50%     89.89% # Number of insts issued each cycle
system.switch_cpus.iq.issued_per_cycle::5        35556      5.35%     95.24% # Number of insts issued each cycle
system.switch_cpus.iq.issued_per_cycle::6        21191      3.19%     98.43% # Number of insts issued each cycle
system.switch_cpus.iq.issued_per_cycle::7         6450      0.97%     99.40% # Number of insts issued each cycle
system.switch_cpus.iq.issued_per_cycle::8         3992      0.60%    100.00% # Number of insts issued each cycle
system.switch_cpus.iq.issued_per_cycle::overflows            0      0.00%    100.00% # Number of insts issued each cycle
system.switch_cpus.iq.issued_per_cycle::min_value            0                       # Number of insts issued each cycle
system.switch_cpus.iq.issued_per_cycle::max_value            8                       # Number of insts issued each cycle
system.switch_cpus.iq.issued_per_cycle::total       664849                       # Number of insts issued each cycle
system.switch_cpus.iq.rate                   1.520820                       # Inst issue rate
system.switch_cpus.iq.vec_alu_accesses              0                       # Number of vector alu accesses
system.switch_cpus.iq.vec_inst_queue_reads            0                       # Number of vector instruction queue reads
system.switch_cpus.iq.vec_inst_queue_wakeup_accesses            0                       # Number of vector instruction queue wakeup accesses
system.switch_cpus.iq.vec_inst_queue_writes            0                       # Number of vector instruction queue writes
system.switch_cpus.memDep0.conflictingLoads       113748                       # Number of conflicting loads.
system.switch_cpus.memDep0.conflictingStores         7613                       # Number of conflicting stores.
system.switch_cpus.memDep0.insertedLoads       438916                       # Number of loads inserted to the mem dependence unit.
system.switch_cpus.memDep0.insertedStores        47185                       # Number of stores inserted to the mem dependence unit.
system.switch_cpus.misc_regfile_reads         2069452                       # number of misc regfile reads
system.switch_cpus.misc_regfile_writes              1                       # number of misc regfile writes
system.switch_cpus.numCycles                   665322                       # number of cpu cycles simulated
system.switch_cpus.numWorkItemsCompleted            0                       # number of work items this cpu completed
system.switch_cpus.numWorkItemsStarted              0                       # number of work items this cpu started
system.switch_cpus.timesIdled                       5                       # Number of times that the entire CPU went into an idle state and unscheduled itself
system.switch_cpus.vec_regfile_writes              44                       # number of vector regfile writes
system.tol2bus.snoop_filter.hit_multi_requests            0                       # Number of requests hitting in the snoop filter with multiple (>1) holders of the requested data.
system.tol2bus.snoop_filter.hit_multi_snoops            0                       # Number of snoops hitting in the snoop filter with multiple (>1) holders of the requested data.
system.tol2bus.snoop_filter.hit_single_requests        19936                       # Number of requests hitting in the snoop filter with a single holder of the requested data.
system.tol2bus.snoop_filter.hit_single_snoops            0                       # Number of snoops hitting in the snoop filter with a single holder of the requested data.
system.tol2bus.snoop_filter.tot_requests        40138                       # Total number of requests made to the snoop filter.
system.tol2bus.snoop_filter.tot_snoops              0                       # Total number of snoops made to the snoop filter.
system.clk_domain.clock                          1000                       # Clock period in ticks
system.cpu.dcache.demand_hits::.cpu.data           13                       # number of demand (read+write) hits
system.cpu.dcache.demand_hits::.switch_cpus.data       313365                       # number of demand (read+write) hits
system.cpu.dcache.demand_hits::total           313378                       # number of demand (read+write) hits
system.cpu.dcache.overall_hits::.cpu.data           13                       # number of overall hits
system.cpu.dcache.overall_hits::.switch_cpus.data       313365                       # number of overall hits
system.cpu.dcache.overall_hits::total          313378                       # number of overall hits
system.cpu.dcache.demand_misses::.cpu.data            3                       # number of demand (read+write) misses
system.cpu.dcache.demand_misses::.switch_cpus.data        43157                       # number of demand (read+write) misses
system.cpu.dcache.demand_misses::total          43160                       # number of demand (read+write) misses
system.cpu.dcache.overall_misses::.cpu.data            3                       # number of overall misses
system.cpu.dcache.overall_misses::.switch_cpus.data        43157                       # number of overall misses
system.cpu.dcache.overall_misses::total         43160                       # number of overall misses
system.cpu.dcache.demand_miss_latency::.switch_cpus.data    585848033                       # number of demand (read+write) miss cycles
system.cpu.dcache.demand_miss_latency::total    585848033                       # number of demand (read+write) miss cycles
system.cpu.dcache.overall_miss_latency::.switch_cpus.data    585848033                       # number of overall miss cycles
system.cpu.dcache.overall_miss_latency::total    585848033                       # number of overall miss cycles
system.cpu.dcache.demand_accesses::.cpu.data           16                       # number of demand (read+write) accesses
system.cpu.dcache.demand_accesses::.switch_cpus.data       356522                       # number of demand (read+write) accesses
system.cpu.dcache.demand_accesses::total       356538                       # number of demand (read+write) accesses
system.cpu.dcache.overall_accesses::.cpu.data           16                       # number of overall (read+write) accesses
system.cpu.dcache.overall_accesses::.switch_cpus.data       356522                       # number of overall (read+write) accesses
system.cpu.dcache.overall_accesses::total       356538                       # number of overall (read+write) accesses
system.cpu.dcache.demand_miss_rate::.cpu.data     0.187500                       # miss rate for demand accesses
system.cpu.dcache.demand_miss_rate::.switch_cpus.data     0.121050                       # miss rate for demand accesses
system.cpu.dcache.demand_miss_rate::total     0.121053                       # miss rate for demand accesses
system.cpu.dcache.overall_miss_rate::.cpu.data     0.187500                       # miss rate for overall accesses
system.cpu.dcache.overall_miss_rate::.switch_cpus.data     0.121050                       # miss rate for overall accesses
system.cpu.dcache.overall_miss_rate::total     0.121053                       # miss rate for overall accesses
system.cpu.dcache.demand_avg_miss_latency::.switch_cpus.data 13574.809023                       # average overall miss latency
system.cpu.dcache.demand_avg_miss_latency::total 13573.865454                       # average overall miss latency
system.cpu.dcache.overall_avg_miss_latency::.switch_cpus.data 13574.809023                       # average overall miss latency
system.cpu.dcache.overall_avg_miss_latency::total 13573.865454                       # average overall miss latency
system.cpu.dcache.blocked_cycles::no_mshrs        38615                       # number of cycles access was blocked
system.cpu.dcache.blocked_cycles::no_targets            0                       # number of cycles access was blocked
system.cpu.dcache.blocked::no_mshrs              2707                       # number of cycles access was blocked
system.cpu.dcache.blocked::no_targets               0                       # number of cycles access was blocked
system.cpu.dcache.avg_blocked_cycles::no_mshrs    14.264869                       # average number of cycles each access was blocked
system.cpu.dcache.avg_blocked_cycles::no_targets          nan                       # average number of cycles each access was blocked
system.cpu.dcache.writebacks::.writebacks          538                       # number of writebacks
system.cpu.dcache.writebacks::total               538                       # number of writebacks
system.cpu.dcache.demand_mshr_hits::.switch_cpus.data        22967                       # number of demand (read+write) MSHR hits
system.cpu.dcache.demand_mshr_hits::total        22967                       # number of demand (read+write) MSHR hits
system.cpu.dcache.overall_mshr_hits::.switch_cpus.data        22967                       # number of overall MSHR hits
system.cpu.dcache.overall_mshr_hits::total        22967                       # number of overall MSHR hits
system.cpu.dcache.demand_mshr_misses::.switch_cpus.data        20190                       # number of demand (read+write) MSHR misses
system.cpu.dcache.demand_mshr_misses::total        20190                       # number of demand (read+write) MSHR misses
system.cpu.dcache.overall_mshr_misses::.switch_cpus.data        20190                       # number of overall MSHR misses
system.cpu.dcache.overall_mshr_misses::total        20190                       # number of overall MSHR misses
system.cpu.dcache.demand_mshr_miss_latency::.switch_cpus.data    305655546                       # number of demand (read+write) MSHR miss cycles
system.cpu.dcache.demand_mshr_miss_latency::total    305655546                       # number of demand (read+write) MSHR miss cycles
system.cpu.dcache.overall_mshr_miss_latency::.switch_cpus.data    305655546                       # number of overall MSHR miss cycles
system.cpu.dcache.overall_mshr_miss_latency::total    305655546                       # number of overall MSHR miss cycles
system.cpu.dcache.demand_mshr_miss_rate::.switch_cpus.data     0.056630                       # mshr miss rate for demand accesses
system.cpu.dcache.demand_mshr_miss_rate::total     0.056628                       # mshr miss rate for demand accesses
system.cpu.dcache.overall_mshr_miss_rate::.switch_cpus.data     0.056630                       # mshr miss rate for overall accesses
system.cpu.dcache.overall_mshr_miss_rate::total     0.056628                       # mshr miss rate for overall accesses
system.cpu.dcache.demand_avg_mshr_miss_latency::.switch_cpus.data 15138.957207                       # average overall mshr miss latency
system.cpu.dcache.demand_avg_mshr_miss_latency::total 15138.957207                       # average overall mshr miss latency
system.cpu.dcache.overall_avg_mshr_miss_latency::.switch_cpus.data 15138.957207                       # average overall mshr miss latency
system.cpu.dcache.overall_avg_mshr_miss_latency::total 15138.957207                       # average overall mshr miss latency
system.cpu.dcache.replacements                  19937                       # number of replacements
system.cpu.dcache.ReadReq_hits::.cpu.data            9                       # number of ReadReq hits
system.cpu.dcache.ReadReq_hits::.switch_cpus.data       268049                       # number of ReadReq hits
system.cpu.dcache.ReadReq_hits::total          268058                       # number of ReadReq hits
system.cpu.dcache.ReadReq_misses::.cpu.data            3                       # number of ReadReq misses
system.cpu.dcache.ReadReq_misses::.switch_cpus.data        42617                       # number of ReadReq misses
system.cpu.dcache.ReadReq_misses::total         42620                       # number of ReadReq misses
system.cpu.dcache.ReadReq_miss_latency::.switch_cpus.data    556939856                       # number of ReadReq miss cycles
system.cpu.dcache.ReadReq_miss_latency::total    556939856                       # number of ReadReq miss cycles
system.cpu.dcache.ReadReq_accesses::.cpu.data           12                       # number of ReadReq accesses(hits+misses)
system.cpu.dcache.ReadReq_accesses::.switch_cpus.data       310666                       # number of ReadReq accesses(hits+misses)
system.cpu.dcache.ReadReq_accesses::total       310678                       # number of ReadReq accesses(hits+misses)
system.cpu.dcache.ReadReq_miss_rate::.cpu.data     0.250000                       # miss rate for ReadReq accesses
system.cpu.dcache.ReadReq_miss_rate::.switch_cpus.data     0.137179                       # miss rate for ReadReq accesses
system.cpu.dcache.ReadReq_miss_rate::total     0.137184                       # miss rate for ReadReq accesses
system.cpu.dcache.ReadReq_avg_miss_latency::.switch_cpus.data 13068.490415                       # average ReadReq miss latency
system.cpu.dcache.ReadReq_avg_miss_latency::total 13067.570530                       # average ReadReq miss latency
system.cpu.dcache.ReadReq_mshr_hits::.switch_cpus.data        22967                       # number of ReadReq MSHR hits
system.cpu.dcache.ReadReq_mshr_hits::total        22967                       # number of ReadReq MSHR hits
system.cpu.dcache.ReadReq_mshr_misses::.switch_cpus.data        19650                       # number of ReadReq MSHR misses
system.cpu.dcache.ReadReq_mshr_misses::total        19650                       # number of ReadReq MSHR misses
system.cpu.dcache.ReadReq_mshr_miss_latency::.switch_cpus.data    277096209                       # number of ReadReq MSHR miss cycles
system.cpu.dcache.ReadReq_mshr_miss_latency::total    277096209                       # number of ReadReq MSHR miss cycles
system.cpu.dcache.ReadReq_mshr_miss_rate::.switch_cpus.data     0.063251                       # mshr miss rate for ReadReq accesses
system.cpu.dcache.ReadReq_mshr_miss_rate::total     0.063249                       # mshr miss rate for ReadReq accesses
system.cpu.dcache.ReadReq_avg_mshr_miss_latency::.switch_cpus.data 14101.588244                       # average ReadReq mshr miss latency
system.cpu.dcache.ReadReq_avg_mshr_miss_latency::total 14101.588244                       # average ReadReq mshr miss latency
system.cpu.dcache.WriteReq_hits::.cpu.data            4                       # number of WriteReq hits
system.cpu.dcache.WriteReq_hits::.switch_cpus.data        45316                       # number of WriteReq hits
system.cpu.dcache.WriteReq_hits::total          45320                       # number of WriteReq hits
system.cpu.dcache.WriteReq_misses::.switch_cpus.data          540                       # number of WriteReq misses
system.cpu.dcache.WriteReq_misses::total          540                       # number of WriteReq misses
system.cpu.dcache.WriteReq_miss_latency::.switch_cpus.data     28908177                       # number of WriteReq miss cycles
system.cpu.dcache.WriteReq_miss_latency::total     28908177                       # number of WriteReq miss cycles
system.cpu.dcache.WriteReq_accesses::.cpu.data            4                       # number of WriteReq accesses(hits+misses)
system.cpu.dcache.WriteReq_accesses::.switch_cpus.data        45856                       # number of WriteReq accesses(hits+misses)
system.cpu.dcache.WriteReq_accesses::total        45860                       # number of WriteReq accesses(hits+misses)
system.cpu.dcache.WriteReq_miss_rate::.switch_cpus.data     0.011776                       # miss rate for WriteReq accesses
system.cpu.dcache.WriteReq_miss_rate::total     0.011775                       # miss rate for WriteReq accesses
system.cpu.dcache.WriteReq_avg_miss_latency::.switch_cpus.data 53533.661111                       # average WriteReq miss latency
system.cpu.dcache.WriteReq_avg_miss_latency::total 53533.661111                       # average WriteReq miss latency
system.cpu.dcache.WriteReq_mshr_misses::.switch_cpus.data          540                       # number of WriteReq MSHR misses
system.cpu.dcache.WriteReq_mshr_misses::total          540                       # number of WriteReq MSHR misses
system.cpu.dcache.WriteReq_mshr_miss_latency::.switch_cpus.data     28559337                       # number of WriteReq MSHR miss cycles
system.cpu.dcache.WriteReq_mshr_miss_latency::total     28559337                       # number of WriteReq MSHR miss cycles
system.cpu.dcache.WriteReq_mshr_miss_rate::.switch_cpus.data     0.011776                       # mshr miss rate for WriteReq accesses
system.cpu.dcache.WriteReq_mshr_miss_rate::total     0.011775                       # mshr miss rate for WriteReq accesses
system.cpu.dcache.WriteReq_avg_mshr_miss_latency::.switch_cpus.data 52887.661111                       # average WriteReq mshr miss latency
system.cpu.dcache.WriteReq_avg_mshr_miss_latency::total 52887.661111                       # average WriteReq mshr miss latency
system.cpu.dcache.power_state.pwrStateResidencyTicks::UNDEFINED 618001691067                       # Cumulative time (in ticks) in various power states
system.cpu.dcache.tags.tagsinuse           250.413353                       # Cycle average of tags in use
system.cpu.dcache.tags.total_refs               60856                       # Total number of references to valid blocks.
system.cpu.dcache.tags.sampled_refs             19937                       # Sample count of references to valid blocks.
system.cpu.dcache.tags.avg_refs              3.052415                       # Average number of references to valid blocks.
system.cpu.dcache.tags.warmup_cycle      617786782694                       # Cycle when the warmup percentage was hit.
system.cpu.dcache.tags.occ_blocks::.cpu.data     2.049830                       # Average occupied blocks per requestor
system.cpu.dcache.tags.occ_blocks::.switch_cpus.data   248.363523                       # Average occupied blocks per requestor
system.cpu.dcache.tags.occ_percent::.cpu.data     0.008007                       # Average percentage of cache occupancy
system.cpu.dcache.tags.occ_percent::.switch_cpus.data     0.970170                       # Average percentage of cache occupancy
system.cpu.dcache.tags.occ_percent::total     0.978177                       # Average percentage of cache occupancy
system.cpu.dcache.tags.occ_task_id_blocks::1024          256                       # Occupied blocks per task id
system.cpu.dcache.tags.age_task_id_blocks_1024::0          251                       # Occupied blocks per task id
system.cpu.dcache.tags.age_task_id_blocks_1024::1            3                       # Occupied blocks per task id
system.cpu.dcache.tags.age_task_id_blocks_1024::2            2                       # Occupied blocks per task id
system.cpu.dcache.tags.occ_task_id_percent::1024            1                       # Percentage of cache occupancy per task id
system.cpu.dcache.tags.tag_accesses           2872497                       # Number of tag accesses
system.cpu.dcache.tags.data_accesses          2872497                       # Number of data accesses
system.cpu.dcache.tags.power_state.pwrStateResidencyTicks::UNDEFINED 618001691067                       # Cumulative time (in ticks) in various power states
system.cpu.dtb.instHits                             0                       # ITB inst hits
system.cpu.dtb.instMisses                           0                       # ITB inst misses
system.cpu.dtb.readHits                             0                       # DTB read hits
system.cpu.dtb.readMisses                           0                       # DTB read misses
system.cpu.dtb.writeHits                            0                       # DTB write hits
system.cpu.dtb.writeMisses                          0                       # DTB write misses
system.cpu.dtb.inserts                              0                       # Number of times an entry is inserted into the TLB
system.cpu.dtb.flushTlb                             2                       # Number of times complete TLB was flushed
system.cpu.dtb.flushTlbMva                          0                       # Number of times TLB was flushed by MVA
system.cpu.dtb.flushTlbMvaAsid                      0                       # Number of times TLB was flushed by MVA & ASID
system.cpu.dtb.flushTlbAsid                         0                       # Number of times TLB was flushed by ASID
system.cpu.dtb.flushedEntries                       0                       # Number of entries that have been flushed from TLB
system.cpu.dtb.alignFaults                          0                       # Number of TLB faults due to alignment restrictions
system.cpu.dtb.prefetchFaults                       0                       # Number of TLB faults due to prefetch
system.cpu.dtb.domainFaults                         0                       # Number of TLB faults due to domain restrictions
system.cpu.dtb.permsFaults                          0                       # Number of TLB faults due to permissions restrictions
system.cpu.dtb.readAccesses                         0                       # DTB read accesses
system.cpu.dtb.writeAccesses                        0                       # DTB write accesses
system.cpu.dtb.instAccesses                         0                       # ITB inst accesses
system.cpu.dtb.hits                                 0                       # Total TLB (inst and data) hits
system.cpu.dtb.misses                               0                       # Total TLB (inst and data) misses
system.cpu.dtb.accesses                             0                       # Total TLB (inst and data) accesses
system.cpu.dtb.stage2_mmu.stage2_tlb.instHits            0                       # ITB inst hits
system.cpu.dtb.stage2_mmu.stage2_tlb.instMisses            0                       # ITB inst misses
system.cpu.dtb.stage2_mmu.stage2_tlb.readHits            0                       # DTB read hits
system.cpu.dtb.stage2_mmu.stage2_tlb.readMisses            0                       # DTB read misses
system.cpu.dtb.stage2_mmu.stage2_tlb.writeHits            0                       # DTB write hits
system.cpu.dtb.stage2_mmu.stage2_tlb.writeMisses            0                       # DTB write misses
system.cpu.dtb.stage2_mmu.stage2_tlb.inserts            0                       # Number of times an entry is inserted into the TLB
system.cpu.dtb.stage2_mmu.stage2_tlb.flushTlb            0                       # Number of times complete TLB was flushed
system.cpu.dtb.stage2_mmu.stage2_tlb.flushTlbMva            0                       # Number of times TLB was flushed by MVA
system.cpu.dtb.stage2_mmu.stage2_tlb.flushTlbMvaAsid            0                       # Number of times TLB was flushed by MVA & ASID
system.cpu.dtb.stage2_mmu.stage2_tlb.flushTlbAsid            0                       # Number of times TLB was flushed by ASID
system.cpu.dtb.stage2_mmu.stage2_tlb.flushedEntries            0                       # Number of entries that have been flushed from TLB
system.cpu.dtb.stage2_mmu.stage2_tlb.alignFaults            0                       # Number of TLB faults due to alignment restrictions
system.cpu.dtb.stage2_mmu.stage2_tlb.prefetchFaults            0                       # Number of TLB faults due to prefetch
system.cpu.dtb.stage2_mmu.stage2_tlb.domainFaults            0                       # Number of TLB faults due to domain restrictions
system.cpu.dtb.stage2_mmu.stage2_tlb.permsFaults            0                       # Number of TLB faults due to permissions restrictions
system.cpu.dtb.stage2_mmu.stage2_tlb.readAccesses            0                       # DTB read accesses
system.cpu.dtb.stage2_mmu.stage2_tlb.writeAccesses            0                       # DTB write accesses
system.cpu.dtb.stage2_mmu.stage2_tlb.instAccesses            0                       # ITB inst accesses
system.cpu.dtb.stage2_mmu.stage2_tlb.hits            0                       # Total TLB (inst and data) hits
system.cpu.dtb.stage2_mmu.stage2_tlb.misses            0                       # Total TLB (inst and data) misses
system.cpu.dtb.stage2_mmu.stage2_tlb.accesses            0                       # Total TLB (inst and data) accesses
system.cpu.dtb.stage2_mmu.stage2_tlb.walker.walks            0                       # Table walker walks requested
system.cpu.dtb.stage2_mmu.stage2_tlb.walker.requestOrigin_Requested::Data            0                       # Table walker requests started/completed, data/inst
system.cpu.dtb.stage2_mmu.stage2_tlb.walker.requestOrigin_Requested::Inst            0                       # Table walker requests started/completed, data/inst
system.cpu.dtb.stage2_mmu.stage2_tlb.walker.requestOrigin_Requested::total            0                       # Table walker requests started/completed, data/inst
system.cpu.dtb.stage2_mmu.stage2_tlb.walker.requestOrigin_Completed::Data            0                       # Table walker requests started/completed, data/inst
system.cpu.dtb.stage2_mmu.stage2_tlb.walker.requestOrigin_Completed::Inst            0                       # Table walker requests started/completed, data/inst
system.cpu.dtb.stage2_mmu.stage2_tlb.walker.requestOrigin_Completed::total            0                       # Table walker requests started/completed, data/inst
system.cpu.dtb.stage2_mmu.stage2_tlb.walker.requestOrigin::total            0                       # Table walker requests started/completed, data/inst
system.cpu.dtb.stage2_mmu.stage2_tlb.walker.power_state.pwrStateResidencyTicks::UNDEFINED 618001691067                       # Cumulative time (in ticks) in various power states
system.cpu.dtb.walker.walks                         0                       # Table walker walks requested
system.cpu.dtb.walker.requestOrigin_Requested::Data            0                       # Table walker requests started/completed, data/inst
system.cpu.dtb.walker.requestOrigin_Requested::Inst            0                       # Table walker requests started/completed, data/inst
system.cpu.dtb.walker.requestOrigin_Requested::total            0                       # Table walker requests started/completed, data/inst
system.cpu.dtb.walker.requestOrigin_Completed::Data            0                       # Table walker requests started/completed, data/inst
system.cpu.dtb.walker.requestOrigin_Completed::Inst            0                       # Table walker requests started/completed, data/inst
system.cpu.dtb.walker.requestOrigin_Completed::total            0                       # Table walker requests started/completed, data/inst
system.cpu.dtb.walker.requestOrigin::total            0                       # Table walker requests started/completed, data/inst
system.cpu.dtb.walker.power_state.pwrStateResidencyTicks::UNDEFINED 618001691067                       # Cumulative time (in ticks) in various power states
system.cpu.icache.demand_hits::.cpu.inst           26                       # number of demand (read+write) hits
system.cpu.icache.demand_hits::.switch_cpus.inst        95636                       # number of demand (read+write) hits
system.cpu.icache.demand_hits::total            95662                       # number of demand (read+write) hits
system.cpu.icache.overall_hits::.cpu.inst           26                       # number of overall hits
system.cpu.icache.overall_hits::.switch_cpus.inst        95636                       # number of overall hits
system.cpu.icache.overall_hits::total           95662                       # number of overall hits
system.cpu.icache.demand_misses::.cpu.inst            4                       # number of demand (read+write) misses
system.cpu.icache.demand_misses::.switch_cpus.inst           14                       # number of demand (read+write) misses
system.cpu.icache.demand_misses::total             18                       # number of demand (read+write) misses
system.cpu.icache.overall_misses::.cpu.inst            4                       # number of overall misses
system.cpu.icache.overall_misses::.switch_cpus.inst           14                       # number of overall misses
system.cpu.icache.overall_misses::total            18                       # number of overall misses
system.cpu.icache.demand_miss_latency::.switch_cpus.inst       830433                       # number of demand (read+write) miss cycles
system.cpu.icache.demand_miss_latency::total       830433                       # number of demand (read+write) miss cycles
system.cpu.icache.overall_miss_latency::.switch_cpus.inst       830433                       # number of overall miss cycles
system.cpu.icache.overall_miss_latency::total       830433                       # number of overall miss cycles
system.cpu.icache.demand_accesses::.cpu.inst           30                       # number of demand (read+write) accesses
system.cpu.icache.demand_accesses::.switch_cpus.inst        95650                       # number of demand (read+write) accesses
system.cpu.icache.demand_accesses::total        95680                       # number of demand (read+write) accesses
system.cpu.icache.overall_accesses::.cpu.inst           30                       # number of overall (read+write) accesses
system.cpu.icache.overall_accesses::.switch_cpus.inst        95650                       # number of overall (read+write) accesses
system.cpu.icache.overall_accesses::total        95680                       # number of overall (read+write) accesses
system.cpu.icache.demand_miss_rate::.cpu.inst     0.133333                       # miss rate for demand accesses
system.cpu.icache.demand_miss_rate::.switch_cpus.inst     0.000146                       # miss rate for demand accesses
system.cpu.icache.demand_miss_rate::total     0.000188                       # miss rate for demand accesses
system.cpu.icache.overall_miss_rate::.cpu.inst     0.133333                       # miss rate for overall accesses
system.cpu.icache.overall_miss_rate::.switch_cpus.inst     0.000146                       # miss rate for overall accesses
system.cpu.icache.overall_miss_rate::total     0.000188                       # miss rate for overall accesses
system.cpu.icache.demand_avg_miss_latency::.switch_cpus.inst 59316.642857                       # average overall miss latency
system.cpu.icache.demand_avg_miss_latency::total 46135.166667                       # average overall miss latency
system.cpu.icache.overall_avg_miss_latency::.switch_cpus.inst 59316.642857                       # average overall miss latency
system.cpu.icache.overall_avg_miss_latency::total 46135.166667                       # average overall miss latency
system.cpu.icache.blocked_cycles::no_mshrs            0                       # number of cycles access was blocked
system.cpu.icache.blocked_cycles::no_targets            0                       # number of cycles access was blocked
system.cpu.icache.blocked::no_mshrs                 0                       # number of cycles access was blocked
system.cpu.icache.blocked::no_targets               0                       # number of cycles access was blocked
system.cpu.icache.avg_blocked_cycles::no_mshrs          nan                       # average number of cycles each access was blocked
system.cpu.icache.avg_blocked_cycles::no_targets          nan                       # average number of cycles each access was blocked
system.cpu.icache.demand_mshr_hits::.switch_cpus.inst            9                       # number of demand (read+write) MSHR hits
system.cpu.icache.demand_mshr_hits::total            9                       # number of demand (read+write) MSHR hits
system.cpu.icache.overall_mshr_hits::.switch_cpus.inst            9                       # number of overall MSHR hits
system.cpu.icache.overall_mshr_hits::total            9                       # number of overall MSHR hits
system.cpu.icache.demand_mshr_misses::.switch_cpus.inst            5                       # number of demand (read+write) MSHR misses
system.cpu.icache.demand_mshr_misses::total            5                       # number of demand (read+write) MSHR misses
system.cpu.icache.overall_mshr_misses::.switch_cpus.inst            5                       # number of overall MSHR misses
system.cpu.icache.overall_mshr_misses::total            5                       # number of overall MSHR misses
system.cpu.icache.demand_mshr_miss_latency::.switch_cpus.inst       347871                       # number of demand (read+write) MSHR miss cycles
system.cpu.icache.demand_mshr_miss_latency::total       347871                       # number of demand (read+write) MSHR miss cycles
system.cpu.icache.overall_mshr_miss_latency::.switch_cpus.inst       347871                       # number of overall MSHR miss cycles
system.cpu.icache.overall_mshr_miss_latency::total       347871                       # number of overall MSHR miss cycles
system.cpu.icache.demand_mshr_miss_rate::.switch_cpus.inst     0.000052                       # mshr miss rate for demand accesses
system.cpu.icache.demand_mshr_miss_rate::total     0.000052                       # mshr miss rate for demand accesses
system.cpu.icache.overall_mshr_miss_rate::.switch_cpus.inst     0.000052                       # mshr miss rate for overall accesses
system.cpu.icache.overall_mshr_miss_rate::total     0.000052                       # mshr miss rate for overall accesses
system.cpu.icache.demand_avg_mshr_miss_latency::.switch_cpus.inst 69574.200000                       # average overall mshr miss latency
system.cpu.icache.demand_avg_mshr_miss_latency::total 69574.200000                       # average overall mshr miss latency
system.cpu.icache.overall_avg_mshr_miss_latency::.switch_cpus.inst 69574.200000                       # average overall mshr miss latency
system.cpu.icache.overall_avg_mshr_miss_latency::total 69574.200000                       # average overall mshr miss latency
system.cpu.icache.replacements                      0                       # number of replacements
system.cpu.icache.ReadReq_hits::.cpu.inst           26                       # number of ReadReq hits
system.cpu.icache.ReadReq_hits::.switch_cpus.inst        95636                       # number of ReadReq hits
system.cpu.icache.ReadReq_hits::total           95662                       # number of ReadReq hits
system.cpu.icache.ReadReq_misses::.cpu.inst            4                       # number of ReadReq misses
system.cpu.icache.ReadReq_misses::.switch_cpus.inst           14                       # number of ReadReq misses
system.cpu.icache.ReadReq_misses::total            18                       # number of ReadReq misses
system.cpu.icache.ReadReq_miss_latency::.switch_cpus.inst       830433                       # number of ReadReq miss cycles
system.cpu.icache.ReadReq_miss_latency::total       830433                       # number of ReadReq miss cycles
system.cpu.icache.ReadReq_accesses::.cpu.inst           30                       # number of ReadReq accesses(hits+misses)
system.cpu.icache.ReadReq_accesses::.switch_cpus.inst        95650                       # number of ReadReq accesses(hits+misses)
system.cpu.icache.ReadReq_accesses::total        95680                       # number of ReadReq accesses(hits+misses)
system.cpu.icache.ReadReq_miss_rate::.cpu.inst     0.133333                       # miss rate for ReadReq accesses
system.cpu.icache.ReadReq_miss_rate::.switch_cpus.inst     0.000146                       # miss rate for ReadReq accesses
system.cpu.icache.ReadReq_miss_rate::total     0.000188                       # miss rate for ReadReq accesses
system.cpu.icache.ReadReq_avg_miss_latency::.switch_cpus.inst 59316.642857                       # average ReadReq miss latency
system.cpu.icache.ReadReq_avg_miss_latency::total 46135.166667                       # average ReadReq miss latency
system.cpu.icache.ReadReq_mshr_hits::.switch_cpus.inst            9                       # number of ReadReq MSHR hits
system.cpu.icache.ReadReq_mshr_hits::total            9                       # number of ReadReq MSHR hits
system.cpu.icache.ReadReq_mshr_misses::.switch_cpus.inst            5                       # number of ReadReq MSHR misses
system.cpu.icache.ReadReq_mshr_misses::total            5                       # number of ReadReq MSHR misses
system.cpu.icache.ReadReq_mshr_miss_latency::.switch_cpus.inst       347871                       # number of ReadReq MSHR miss cycles
system.cpu.icache.ReadReq_mshr_miss_latency::total       347871                       # number of ReadReq MSHR miss cycles
system.cpu.icache.ReadReq_mshr_miss_rate::.switch_cpus.inst     0.000052                       # mshr miss rate for ReadReq accesses
system.cpu.icache.ReadReq_mshr_miss_rate::total     0.000052                       # mshr miss rate for ReadReq accesses
system.cpu.icache.ReadReq_avg_mshr_miss_latency::.switch_cpus.inst 69574.200000                       # average ReadReq mshr miss latency
system.cpu.icache.ReadReq_avg_mshr_miss_latency::total 69574.200000                       # average ReadReq mshr miss latency
system.cpu.icache.power_state.pwrStateResidencyTicks::UNDEFINED 618001691067                       # Cumulative time (in ticks) in various power states
system.cpu.icache.tags.tagsinuse             8.994129                       # Cycle average of tags in use
system.cpu.icache.tags.total_refs                   0                       # Total number of references to valid blocks.
system.cpu.icache.tags.sampled_refs                 0                       # Sample count of references to valid blocks.
system.cpu.icache.tags.avg_refs                   nan                       # Average number of references to valid blocks.
system.cpu.icache.tags.warmup_cycle      617786782371                       # Cycle when the warmup percentage was hit.
system.cpu.icache.tags.occ_blocks::.cpu.inst     3.999921                       # Average occupied blocks per requestor
system.cpu.icache.tags.occ_blocks::.switch_cpus.inst     4.994208                       # Average occupied blocks per requestor
system.cpu.icache.tags.occ_percent::.cpu.inst     0.007812                       # Average percentage of cache occupancy
system.cpu.icache.tags.occ_percent::.switch_cpus.inst     0.009754                       # Average percentage of cache occupancy
system.cpu.icache.tags.occ_percent::total     0.017567                       # Average percentage of cache occupancy
system.cpu.icache.tags.occ_task_id_blocks::1024            9                       # Occupied blocks per task id
system.cpu.icache.tags.age_task_id_blocks_1024::2            9                       # Occupied blocks per task id
system.cpu.icache.tags.occ_task_id_percent::1024     0.017578                       # Percentage of cache occupancy per task id
system.cpu.icache.tags.tag_accesses            765449                       # Number of tag accesses
system.cpu.icache.tags.data_accesses           765449                       # Number of data accesses
system.cpu.icache.tags.power_state.pwrStateResidencyTicks::UNDEFINED 618001691067                       # Cumulative time (in ticks) in various power states
system.cpu.itb.instHits                             0                       # ITB inst hits
system.cpu.itb.instMisses                           0                       # ITB inst misses
system.cpu.itb.readHits                             0                       # DTB read hits
system.cpu.itb.readMisses                           0                       # DTB read misses
system.cpu.itb.writeHits                            0                       # DTB write hits
system.cpu.itb.writeMisses                          0                       # DTB write misses
system.cpu.itb.inserts                              0                       # Number of times an entry is inserted into the TLB
system.cpu.itb.flushTlb                             2                       # Number of times complete TLB was flushed
system.cpu.itb.flushTlbMva                          0                       # Number of times TLB was flushed by MVA
system.cpu.itb.flushTlbMvaAsid                      0                       # Number of times TLB was flushed by MVA & ASID
system.cpu.itb.flushTlbAsid                         0                       # Number of times TLB was flushed by ASID
system.cpu.itb.flushedEntries                       0                       # Number of entries that have been flushed from TLB
system.cpu.itb.alignFaults                          0                       # Number of TLB faults due to alignment restrictions
system.cpu.itb.prefetchFaults                       0                       # Number of TLB faults due to prefetch
system.cpu.itb.domainFaults                         0                       # Number of TLB faults due to domain restrictions
system.cpu.itb.permsFaults                          0                       # Number of TLB faults due to permissions restrictions
system.cpu.itb.readAccesses                         0                       # DTB read accesses
system.cpu.itb.writeAccesses                        0                       # DTB write accesses
system.cpu.itb.instAccesses                         0                       # ITB inst accesses
system.cpu.itb.hits                                 0                       # Total TLB (inst and data) hits
system.cpu.itb.misses                               0                       # Total TLB (inst and data) misses
system.cpu.itb.accesses                             0                       # Total TLB (inst and data) accesses
system.cpu.itb.stage2_mmu.stage2_tlb.instHits            0                       # ITB inst hits
system.cpu.itb.stage2_mmu.stage2_tlb.instMisses            0                       # ITB inst misses
system.cpu.itb.stage2_mmu.stage2_tlb.readHits            0                       # DTB read hits
system.cpu.itb.stage2_mmu.stage2_tlb.readMisses            0                       # DTB read misses
system.cpu.itb.stage2_mmu.stage2_tlb.writeHits            0                       # DTB write hits
system.cpu.itb.stage2_mmu.stage2_tlb.writeMisses            0                       # DTB write misses
system.cpu.itb.stage2_mmu.stage2_tlb.inserts            0                       # Number of times an entry is inserted into the TLB
system.cpu.itb.stage2_mmu.stage2_tlb.flushTlb            0                       # Number of times complete TLB was flushed
system.cpu.itb.stage2_mmu.stage2_tlb.flushTlbMva            0                       # Number of times TLB was flushed by MVA
system.cpu.itb.stage2_mmu.stage2_tlb.flushTlbMvaAsid            0                       # Number of times TLB was flushed by MVA & ASID
system.cpu.itb.stage2_mmu.stage2_tlb.flushTlbAsid            0                       # Number of times TLB was flushed by ASID
system.cpu.itb.stage2_mmu.stage2_tlb.flushedEntries            0                       # Number of entries that have been flushed from TLB
system.cpu.itb.stage2_mmu.stage2_tlb.alignFaults            0                       # Number of TLB faults due to alignment restrictions
system.cpu.itb.stage2_mmu.stage2_tlb.prefetchFaults            0                       # Number of TLB faults due to prefetch
system.cpu.itb.stage2_mmu.stage2_tlb.domainFaults            0                       # Number of TLB faults due to domain restrictions
system.cpu.itb.stage2_mmu.stage2_tlb.permsFaults            0                       # Number of TLB faults due to permissions restrictions
system.cpu.itb.stage2_mmu.stage2_tlb.readAccesses            0                       # DTB read accesses
system.cpu.itb.stage2_mmu.stage2_tlb.writeAccesses            0                       # DTB write accesses
system.cpu.itb.stage2_mmu.stage2_tlb.instAccesses            0                       # ITB inst accesses
system.cpu.itb.stage2_mmu.stage2_tlb.hits            0                       # Total TLB (inst and data) hits
system.cpu.itb.stage2_mmu.stage2_tlb.misses            0                       # Total TLB (inst and data) misses
system.cpu.itb.stage2_mmu.stage2_tlb.accesses            0                       # Total TLB (inst and data) accesses
system.cpu.itb.stage2_mmu.stage2_tlb.walker.walks            0                       # Table walker walks requested
system.cpu.itb.stage2_mmu.stage2_tlb.walker.requestOrigin_Requested::Data            0                       # Table walker requests started/completed, data/inst
system.cpu.itb.stage2_mmu.stage2_tlb.walker.requestOrigin_Requested::Inst            0                       # Table walker requests started/completed, data/inst
system.cpu.itb.stage2_mmu.stage2_tlb.walker.requestOrigin_Requested::total            0                       # Table walker requests started/completed, data/inst
system.cpu.itb.stage2_mmu.stage2_tlb.walker.requestOrigin_Completed::Data            0                       # Table walker requests started/completed, data/inst
system.cpu.itb.stage2_mmu.stage2_tlb.walker.requestOrigin_Completed::Inst            0                       # Table walker requests started/completed, data/inst
system.cpu.itb.stage2_mmu.stage2_tlb.walker.requestOrigin_Completed::total            0                       # Table walker requests started/completed, data/inst
system.cpu.itb.stage2_mmu.stage2_tlb.walker.requestOrigin::total            0                       # Table walker requests started/completed, data/inst
system.cpu.itb.stage2_mmu.stage2_tlb.walker.power_state.pwrStateResidencyTicks::UNDEFINED 618001691067                       # Cumulative time (in ticks) in various power states
system.cpu.itb.walker.walks                         0                       # Table walker walks requested
system.cpu.itb.walker.requestOrigin_Requested::Data            0                       # Table walker requests started/completed, data/inst
system.cpu.itb.walker.requestOrigin_Requested::Inst            0                       # Table walker requests started/completed, data/inst
system.cpu.itb.walker.requestOrigin_Requested::total            0                       # Table walker requests started/completed, data/inst
system.cpu.itb.walker.requestOrigin_Completed::Data            0                       # Table walker requests started/completed, data/inst
system.cpu.itb.walker.requestOrigin_Completed::Inst            0                       # Table walker requests started/completed, data/inst
system.cpu.itb.walker.requestOrigin_Completed::total            0                       # Table walker requests started/completed, data/inst
system.cpu.itb.walker.requestOrigin::total            0                       # Table walker requests started/completed, data/inst
system.cpu.itb.walker.power_state.pwrStateResidencyTicks::UNDEFINED 618001691067                       # Cumulative time (in ticks) in various power states
system.cpu.power_state.numTransitions               1                       # Number of power state transitions
system.cpu.power_state.pwrStateResidencyTicks::ON 617786792000                       # Cumulative time (in ticks) in various power states
system.cpu.power_state.pwrStateResidencyTicks::OFF    214899067                       # Cumulative time (in ticks) in various power states
system.cpu.thread_0.numInsts                        0                       # Number of Instructions committed
system.cpu.thread_0.numOps                          0                       # Number of Ops committed
system.cpu.thread_0.numMemRefs                      0                       # Number of Memory References
system.cpu_clk_domain.clock                       323                       # Clock period in ticks
system.cpu_voltage_domain.voltage                   1                       # Voltage in Volts
system.l2.demand_hits::.switch_cpus.data        18346                       # number of demand (read+write) hits
system.l2.demand_hits::total                    18346                       # number of demand (read+write) hits
system.l2.overall_hits::.switch_cpus.data        18346                       # number of overall hits
system.l2.overall_hits::total                   18346                       # number of overall hits
system.l2.demand_misses::.cpu.inst                  4                       # number of demand (read+write) misses
system.l2.demand_misses::.cpu.data                  3                       # number of demand (read+write) misses
system.l2.demand_misses::.switch_cpus.inst            5                       # number of demand (read+write) misses
system.l2.demand_misses::.switch_cpus.data         1844                       # number of demand (read+write) misses
system.l2.demand_misses::total                   1856                       # number of demand (read+write) misses
system.l2.overall_misses::.cpu.inst                 4                       # number of overall misses
system.l2.overall_misses::.cpu.data                 3                       # number of overall misses
[...]
system.switch_cpus.dtb.walker.power_state.pwrStateResidencyTicks::UNDEFINED   1748136401                       # Cumulative time (in ticks) in various power states
system.switch_cpus.fetch.icacheStallCycles       988524                       # Number of cycles fetch is stalled on an Icache miss
system.switch_cpus.fetch.insts               10549181                       # Number of instructions fetch has processed
system.switch_cpus.fetch.branches             1651227                       # Number of branches that fetch encountered
system.switch_cpus.fetch.predictedBranches       878187                       # Number of branches that fetch has predicted taken
system.switch_cpus.fetch.cycles               4403243                       # Number of cycles fetch has run and was not squashing or blocked
system.switch_cpus.fetch.squashCycles           19876                       # Number of cycles fetch has spent squashing
system.switch_cpus.fetch.miscStallCycles          166                       # Number of cycles fetch has spent waiting on interrupts,or bad addresses, or out of MSHRs
system.switch_cpus.fetch.pendingTrapStallCycles           14                       # Number of stall cycles due to pending traps
system.switch_cpus.fetch.icacheWaitRetryStallCycles            1                       # Number of stall cycles due to full MSHR
system.switch_cpus.fetch.cacheLines            981166                       # Number of cache lines fetched
system.switch_cpus.fetch.icacheSquashes          3060                       # Number of outstanding Icache misses that were squashed
system.switch_cpus.fetch.nisnDist::samples      5401886                       # Number of instructions fetched each cycle (Total)
system.switch_cpus.fetch.nisnDist::mean      1.952948                       # Number of instructions fetched each cycle (Total)
system.switch_cpus.fetch.nisnDist::stdev     2.883100                       # Number of instructions fetched each cycle (Total)
system.switch_cpus.fetch.nisnDist::underflows            0      0.00%      0.00% # Number of instructions fetched each cycle (Total)
system.switch_cpus.fetch.nisnDist::0          3329810     61.64%     61.64% # Number of instructions fetched each cycle (Total)
system.switch_cpus.fetch.nisnDist::1           203783      3.77%     65.41% # Number of instructions fetched each cycle (Total)
system.switch_cpus.fetch.nisnDist::2           140748      2.61%     68.02% # Number of instructions fetched each cycle (Total)
system.switch_cpus.fetch.nisnDist::3           233874      4.33%     72.35% # Number of instructions fetched each cycle (Total)
system.switch_cpus.fetch.nisnDist::4           386328      7.15%     79.50% # Number of instructions fetched each cycle (Total)
system.switch_cpus.fetch.nisnDist::5           105614      1.96%     81.46% # Number of instructions fetched each cycle (Total)
system.switch_cpus.fetch.nisnDist::6           284265      5.26%     86.72% # Number of instructions fetched each cycle (Total)
system.switch_cpus.fetch.nisnDist::7           155983      2.89%     89.61% # Number of instructions fetched each cycle (Total)
system.switch_cpus.fetch.nisnDist::8           561481     10.39%    100.00% # Number of instructions fetched each cycle (Total)
system.switch_cpus.fetch.nisnDist::overflows            0      0.00%    100.00% # Number of instructions fetched each cycle (Total)
system.switch_cpus.fetch.nisnDist::min_value            0                       # Number of instructions fetched each cycle (Total)
system.switch_cpus.fetch.nisnDist::max_value            8                       # Number of instructions fetched each cycle (Total)
system.switch_cpus.fetch.nisnDist::total      5401886                       # Number of instructions fetched each cycle (Total)
system.switch_cpus.fetch.branchRate          0.305094                       # Number of branch fetches per cycle
system.switch_cpus.fetch.rate                1.949153                       # Number of inst fetches per cycle
system.switch_cpus.itb.instHits                     0                       # ITB inst hits
system.switch_cpus.itb.instMisses                   0                       # ITB inst misses
system.switch_cpus.itb.readHits                     0                       # DTB read hits
system.switch_cpus.itb.readMisses                   0                       # DTB read misses
system.switch_cpus.itb.writeHits                    0                       # DTB write hits
system.switch_cpus.itb.writeMisses                  0                       # DTB write misses
system.switch_cpus.itb.inserts                      0                       # Number of times an entry is inserted into the TLB
system.switch_cpus.itb.flushTlb                     0                       # Number of times complete TLB was flushed
system.switch_cpus.itb.flushTlbMva                  0                       # Number of times TLB was flushed by MVA
system.switch_cpus.itb.flushTlbMvaAsid              0                       # Number of times TLB was flushed by MVA & ASID
system.switch_cpus.itb.flushTlbAsid                 0                       # Number of times TLB was flushed by ASID
system.switch_cpus.itb.flushedEntries               0                       # Number of entries that have been flushed from TLB
system.switch_cpus.itb.alignFaults                  0                       # Number of TLB faults due to alignment restrictions
system.switch_cpus.itb.prefetchFaults               0                       # Number of TLB faults due to prefetch
system.switch_cpus.itb.domainFaults                 0                       # Number of TLB faults due to domain restrictions
system.switch_cpus.itb.permsFaults                  0                       # Number of TLB faults due to permissions restrictions
system.switch_cpus.itb.readAccesses                 0                       # DTB read accesses
system.switch_cpus.itb.writeAccesses                0                       # DTB write accesses
system.switch_cpus.itb.instAccesses                 0                       # ITB inst accesses
system.switch_cpus.itb.hits                         0                       # Total TLB (inst and data) hits
system.switch_cpus.itb.misses                       0                       # Total TLB (inst and data) misses
system.switch_cpus.itb.accesses                     0                       # Total TLB (inst and data) accesses
system.switch_cpus.itb.stage2_mmu.stage2_tlb.instHits            0                       # ITB inst hits
system.switch_cpus.itb.stage2_mmu.stage2_tlb.instMisses            0                       # ITB inst misses
system.switch_cpus.itb.stage2_mmu.stage2_tlb.readHits            0                       # DTB read hits
system.switch_cpus.itb.stage2_mmu.stage2_tlb.readMisses            0                       # DTB read misses
system.switch_cpus.itb.stage2_mmu.stage2_tlb.writeHits            0                       # DTB write hits
system.switch_cpus.itb.stage2_mmu.stage2_tlb.writeMisses            0                       # DTB write misses
system.switch_cpus.itb.stage2_mmu.stage2_tlb.inserts            0                       # Number of times an entry is inserted into the TLB
system.switch_cpus.itb.stage2_mmu.stage2_tlb.flushTlb            0                       # Number of times complete TLB was flushed
system.switch_cpus.itb.stage2_mmu.stage2_tlb.flushTlbMva            0                       # Number of times TLB was flushed by MVA
system.switch_cpus.itb.stage2_mmu.stage2_tlb.flushTlbMvaAsid            0                       # Number of times TLB was flushed by MVA & ASID
system.switch_cpus.itb.stage2_mmu.stage2_tlb.flushTlbAsid            0                       # Number of times TLB was flushed by ASID
system.switch_cpus.itb.stage2_mmu.stage2_tlb.flushedEntries            0                       # Number of entries that have been flushed from TLB
system.switch_cpus.itb.stage2_mmu.stage2_tlb.alignFaults            0                       # Number of TLB faults due to alignment restrictions
system.switch_cpus.itb.stage2_mmu.stage2_tlb.prefetchFaults            0                       # Number of TLB faults due to prefetch
system.switch_cpus.itb.stage2_mmu.stage2_tlb.domainFaults            0                       # Number of TLB faults due to domain restrictions
system.switch_cpus.itb.stage2_mmu.stage2_tlb.permsFaults            0                       # Number of TLB faults due to permissions restrictions
system.switch_cpus.itb.stage2_mmu.stage2_tlb.readAccesses            0                       # DTB read accesses
system.switch_cpus.itb.stage2_mmu.stage2_tlb.writeAccesses            0                       # DTB write accesses
system.switch_cpus.itb.stage2_mmu.stage2_tlb.instAccesses            0                       # ITB inst accesses
system.switch_cpus.itb.stage2_mmu.stage2_tlb.hits            0                       # Total TLB (inst and data) hits
system.switch_cpus.itb.stage2_mmu.stage2_tlb.misses            0                       # Total TLB (inst and data) misses
system.switch_cpus.itb.stage2_mmu.stage2_tlb.accesses            0                       # Total TLB (inst and data) accesses
system.switch_cpus.itb.stage2_mmu.stage2_tlb.walker.walks            0                       # Table walker walks requested
system.switch_cpus.itb.stage2_mmu.stage2_tlb.walker.requestOrigin_Requested::Data            0                       # Table walker requests started/completed, data/inst
system.switch_cpus.itb.stage2_mmu.stage2_tlb.walker.requestOrigin_Requested::Inst            0                       # Table walker requests started/completed, data/inst
system.switch_cpus.itb.stage2_mmu.stage2_tlb.walker.requestOrigin_Requested::total            0                       # Table walker requests started/completed, data/inst
system.switch_cpus.itb.stage2_mmu.stage2_tlb.walker.requestOrigin_Completed::Data            0                       # Table walker requests started/completed, data/inst
system.switch_cpus.itb.stage2_mmu.stage2_tlb.walker.requestOrigin_Completed::Inst            0                       # Table walker requests started/completed, data/inst
system.switch_cpus.itb.stage2_mmu.stage2_tlb.walker.requestOrigin_Completed::total            0                       # Table walker requests started/completed, data/inst
system.switch_cpus.itb.stage2_mmu.stage2_tlb.walker.requestOrigin::total            0                       # Table walker requests started/completed, data/inst
system.switch_cpus.itb.stage2_mmu.stage2_tlb.walker.power_state.pwrStateResidencyTicks::UNDEFINED   1748136401                       # Cumulative time (in ticks) in various power states
system.switch_cpus.itb.walker.walks                 0                       # Table walker walks requested
system.switch_cpus.itb.walker.requestOrigin_Requested::Data            0                       # Table walker requests started/completed, data/inst
system.switch_cpus.itb.walker.requestOrigin_Requested::Inst            0                       # Table walker requests started/completed, data/inst
system.switch_cpus.itb.walker.requestOrigin_Requested::total            0                       # Table walker requests started/completed, data/inst
system.switch_cpus.itb.walker.requestOrigin_Completed::Data            0                       # Table walker requests started/completed, data/inst
system.switch_cpus.itb.walker.requestOrigin_Completed::Inst            0                       # Table walker requests started/completed, data/inst
system.switch_cpus.itb.walker.requestOrigin_Completed::total            0                       # Table walker requests started/completed, data/inst
system.switch_cpus.itb.walker.requestOrigin::total            0                       # Table walker requests started/completed, data/inst
system.switch_cpus.itb.walker.power_state.pwrStateResidencyTicks::UNDEFINED   1748136401                       # Cumulative time (in ticks) in various power states
system.switch_cpus.lsq0.forwLoads             1309801                       # Number of loads that had data forwarded from stores
system.switch_cpus.lsq0.squashedLoads          117343                       # Number of loads squashed
system.switch_cpus.lsq0.ignoredResponses         1187                       # Number of memory responses ignored because the instruction is squashed
system.switch_cpus.lsq0.memOrderViolation           79                       # Number of memory ordering violations
system.switch_cpus.lsq0.squashedStores          19892                       # Number of stores squashed
system.switch_cpus.lsq0.rescheduledLoads            1                       # Number of loads that were rescheduled
system.switch_cpus.lsq0.blockedByCache            217                       # Number of times an access to memory failed due to the cache being blocked
system.switch_cpus.power_state.pwrStateResidencyTicks::OFF   1748136401                       # Cumulative time (in ticks) in various power states
system.switch_cpus.rename.squashCycles           9892                       # Number of cycles rename is squashing
system.switch_cpus.rename.idleCycles           557435                       # Number of cycles rename is idle
system.switch_cpus.rename.blockCycles          409249                       # Number of cycles rename is blocking
system.switch_cpus.rename.serializeStallCycles          707                       # count of cycles rename stalledfor serializing inst
system.switch_cpus.rename.runCycles           1398990                       # Number of cycles rename is running
system.switch_cpus.rename.unblockCycles       3025613                       # Number of cycles rename is unblocking
system.switch_cpus.rename.renamedInsts       10306663                       # Number of instructions processed by rename
system.switch_cpus.rename.IQFullEvents          48937                       # Number of times rename has blocked due to IQ full
system.switch_cpus.rename.LQFullEvents        2972063                       # Number of times rename has blocked due to LQ full
system.switch_cpus.rename.SQFullEvents           1636                       # Number of times rename has blocked due to SQ full
system.switch_cpus.rename.renamedOperands     13034881                       # Number of destination operands rename has renamed
system.switch_cpus.rename.lookups            15485670                       # Number of register rename lookups that rename has made
system.switch_cpus.rename.intLookups         10648393                       # Number of integer rename lookups
system.switch_cpus.rename.vecLookups               12                       # Number of vector rename lookups
system.switch_cpus.rename.committedMaps      12670308                       # Number of HB maps that are committed
system.switch_cpus.rename.undoneMaps           364550                       # Number of HB maps that are undone due to squashing
system.switch_cpus.rename.serializing              18                       # count of serializing insts renamed
system.switch_cpus.rename.tempSerializing            4                       # count of temporary serializing insts renamed
system.switch_cpus.rename.skidInsts           1595406                       # count of insts added to the skid buffer
system.switch_cpus.rob.reads                 14755410                       # The number of ROB reads
system.switch_cpus.rob.writes                20580516                       # The number of ROB writes
system.switch_cpus.thread_0.numInsts         10000004                       # Number of Instructions committed
system.switch_cpus.thread_0.numOps           10000194                       # Number of Ops committed
system.switch_cpus.thread_0.numMemRefs              0                       # Number of Memory References
system.tol2bus.trans_dist::ReadResp            188126                       # Transaction distribution
system.tol2bus.trans_dist::WritebackDirty         7068                       # Transaction distribution
system.tol2bus.trans_dist::CleanEvict          190229                       # Transaction distribution
system.tol2bus.trans_dist::HardPFReq             7938                       # Transaction distribution
system.tol2bus.trans_dist::ReadExReq             5756                       # Transaction distribution
system.tol2bus.trans_dist::ReadExResp            5756                       # Transaction distribution
system.tol2bus.trans_dist::ReadCleanReq            70                       # Transaction distribution
system.tol2bus.trans_dist::ReadSharedReq       188056                       # Transaction distribution
system.tol2bus.pkt_count_system.cpu.icache.mem_side_port::system.l2.cpu_side_port          140                       # Packet count per connected requestor and responder (bytes)
system.tol2bus.pkt_count_system.cpu.dcache.mem_side_port::system.l2.cpu_side_port       581437                       # Packet count per connected requestor and responder (bytes)
system.tol2bus.pkt_count::total                581577                       # Packet count per connected requestor and responder (bytes)
system.tol2bus.pkt_size_system.cpu.icache.mem_side_port::system.l2.cpu_side_port         8960                       # Cumulative packet size per connected requestor and responder (bytes)
system.tol2bus.pkt_size_system.cpu.dcache.mem_side_port::system.l2.cpu_side_port     25712640                       # Cumulative packet size per connected requestor and responder (bytes)
system.tol2bus.pkt_size::total               25721600                       # Cumulative packet size per connected requestor and responder (bytes)
system.tol2bus.snoops                           11422                       # Total snoops (count)
system.tol2bus.snoopTraffic                         0                       # Total snoop traffic (bytes)
system.tol2bus.snoop_fanout::samples           205304                       # Request fanout histogram
system.tol2bus.snoop_fanout::mean            0.000054                       # Request fanout histogram
system.tol2bus.snoop_fanout::stdev           0.007320                       # Request fanout histogram
system.tol2bus.snoop_fanout::underflows             0      0.00%      0.00% # Request fanout histogram
system.tol2bus.snoop_fanout::0                 205293     99.99%     99.99% # Request fanout histogram
system.tol2bus.snoop_fanout::1                     11      0.01%    100.00% # Request fanout histogram
system.tol2bus.snoop_fanout::2                      0      0.00%    100.00% # Request fanout histogram
system.tol2bus.snoop_fanout::overflows              0      0.00%    100.00% # Request fanout histogram
system.tol2bus.snoop_fanout::min_value              0                       # Request fanout histogram
system.tol2bus.snoop_fanout::max_value              1                       # Request fanout histogram
system.tol2bus.snoop_fanout::total             205304                       # Request fanout histogram
system.tol2bus.power_state.pwrStateResidencyTicks::UNDEFINED   1748136401                       # Cumulative time (in ticks) in various power states
system.tol2bus.reqLayer0.occupancy          134357341                       # Layer occupancy (ticks)
system.tol2bus.reqLayer0.utilization              7.7                       # Layer utilization (%)
system.tol2bus.respLayer0.occupancy            113372                       # Layer occupancy (ticks)
system.tol2bus.respLayer0.utilization             0.0                       # Layer utilization (%)
system.tol2bus.respLayer1.occupancy         313006380                       # Layer occupancy (ticks)
system.tol2bus.respLayer1.utilization            17.9                       # Layer utilization (%)
system.voltage_domain.voltage                       1                       # Voltage in Volts

---------- End Simulation Statistics   ----------
