
---------- Begin Simulation Statistics ----------
final_tick                               570253725600                       # Number of ticks from beginning of simulation (restored from checkpoints and never reset)
host_inst_rate                                 326167                       # Simulator instruction rate (inst/s)
host_mem_usage                               16974220                       # Number of bytes of host memory used
host_op_rate                                   326162                       # Simulator op (including micro ops) rate (op/s)
host_seconds                                     3.07                       # Real time elapsed on the host
host_tick_rate                              152558269                       # Simulator tick rate (ticks/s)
sim_freq                                 1000000000000                       # Frequency of simulated ticks
sim_insts                                     1000025                       # Number of instructions simulated
sim_ops                                       1000025                       # Number of ops (including micro ops) simulated
sim_seconds                                  0.000468                       # Number of seconds simulated
sim_ticks                                   467751600                       # Number of ticks simulated
system.cpu.Branches                                 1                       # Number of branches fetched
system.cpu.committedInsts                          25                       # Number of instructions committed
system.cpu.committedOps                            25                       # Number of ops (including micro ops) committed
system.cpu.idle_fraction                            0                       # Percentage of idle cycles
system.cpu.not_idle_fraction                        1                       # Percentage of non-idle cycles
system.cpu.numCycles                               25                       # number of cpu cycles simulated
system.cpu.numWorkItemsCompleted                    0                       # number of work items this cpu completed
system.cpu.numWorkItemsStarted                      0                       # number of work items this cpu started
system.cpu.num_busy_cycles                         25                       # Number of busy cycles
system.cpu.num_conditional_control_insts            0                       # number of instructions that are conditional controls
system.cpu.num_fp_alu_accesses                      0                       # Number of float alu accesses
system.cpu.num_fp_insts                             0                       # number of float instructions
system.cpu.num_fp_register_reads                    0                       # number of times the floating registers were read
system.cpu.num_fp_register_writes                   0                       # number of times the floating registers were written
system.cpu.num_func_calls                           0                       # number of times a function call or return occured
system.cpu.num_idle_cycles                          0                       # Number of idle cycles
system.cpu.num_int_alu_accesses                    24                       # Number of integer alu accesses
system.cpu.num_int_insts                           24                       # number of integer instructions
system.cpu.num_int_register_reads                  28                       # number of times the integer registers were read
system.cpu.num_int_register_writes                 21                       # number of times the integer registers were written
system.cpu.num_load_insts                           9                       # Number of load instructions
system.cpu.num_mem_refs                            12                       # number of memory refs
system.cpu.num_store_insts                          3                       # Number of store instructions
system.cpu.num_vec_alu_accesses                     0                       # Number of vector alu accesses
system.cpu.num_vec_insts                            0                       # number of vector instructions
system.cpu.num_vec_register_reads                   0                       # number of times the vector registers were read
system.cpu.num_vec_register_writes                  0                       # number of times the vector registers were written
system.cpu.op_class::No_OpClass                     0      0.00%      0.00% # Class of executed instruction
system.cpu.op_class::IntAlu                        13     52.00%     52.00% # Class of executed instruction
system.cpu.op_class::IntMult                        0      0.00%     52.00% # Class of executed instruction
system.cpu.op_class::IntDiv                         0      0.00%     52.00% # Class of executed instruction
system.cpu.op_class::FloatAdd                       0      0.00%     52.00% # Class of executed instruction
system.cpu.op_class::FloatCmp                       0      0.00%     52.00% # Class of executed instruction
system.cpu.op_class::FloatCvt                       0      0.00%     52.00% # Class of executed instruction
system.cpu.op_class::FloatMult                      0      0.00%     52.00% # Class of executed instruction
system.cpu.op_class::FloatMultAcc                   0      0.00%     52.00% # Class of executed instruction
system.cpu.op_class::FloatDiv                       0      0.00%     52.00% # Class of executed instruction
system.cpu.op_class::FloatMisc                      0      0.00%     52.00% # Class of executed instruction
system.cpu.op_class::FloatSqrt                      0      0.00%     52.00% # Class of executed instruction
system.cpu.op_class::SimdAdd                        0      0.00%     52.00% # Class of executed instruction
system.cpu.op_class::SimdAddAcc                     0      0.00%     52.00% # Class of executed instruction
system.cpu.op_class::SimdAlu                        0      0.00%     52.00% # Class of executed instruction
system.cpu.op_class::SimdCmp                        0      0.00%     52.00% # Class of executed instruction
system.cpu.op_class::SimdCvt                        0      0.00%     52.00% # Class of executed instruction
system.cpu.op_class::SimdMisc                       0      0.00%     52.00% # Class of executed instruction
system.cpu.op_class::SimdMult                       0      0.00%     52.00% # Class of executed instruction
system.cpu.op_class::SimdMultAcc                    0      0.00%     52.00% # Class of executed instruction
system.cpu.op_class::SimdShift                      0      0.00%     52.00% # Class of executed instruction
system.cpu.op_class::SimdShiftAcc                   0      0.00%     52.00% # Class of executed instruction
system.cpu.op_class::SimdDiv                        0      0.00%     52.00% # Class of executed instruction
system.cpu.op_class::SimdSqrt                       0      0.00%     52.00% # Class of executed instruction
system.cpu.op_class::SimdFloatAdd                   0      0.00%     52.00% # Class of executed instruction
system.cpu.op_class::SimdFloatAlu                   0      0.00%     52.00% # Class of executed instruction
system.cpu.op_class::SimdFloatCmp                   0      0.00%     52.00% # Class of executed instruction
system.cpu.op_class::SimdFloatCvt                   0      0.00%     52.00% # Class of executed instruction
system.cpu.op_class::SimdFloatDiv                   0      0.00%     52.00% # Class of executed instruction
system.cpu.op_class::SimdFloatMisc                  0      0.00%     52.00% # Class of executed instruction
system.cpu.op_class::SimdFloatMult                  0      0.00%     52.00% # Class of executed instruction
system.cpu.op_class::SimdFloatMultAcc               0      0.00%     52.00% # Class of executed instruction
system.cpu.op_class::SimdFloatSqrt                  0      0.00%     52.00% # Class of executed instruction
system.cpu.op_class::SimdReduceAdd                  0      0.00%     52.00% # Class of executed instruction
system.cpu.op_class::SimdReduceAlu                  0      0.00%     52.00% # Class of executed instruction
system.cpu.op_class::SimdReduceCmp                  0      0.00%     52.00% # Class of executed instruction
system.cpu.op_class::SimdFloatReduceAdd             0      0.00%     52.00% # Class of executed instruction
system.cpu.op_class::SimdFloatReduceCmp             0      0.00%     52.00% # Class of executed instruction
system.cpu.op_class::SimdAes                        0      0.00%     52.00% # Class of executed instruction
system.cpu.op_class::SimdAesMix                     0      0.00%     52.00% # Class of executed instruction
system.cpu.op_class::SimdSha1Hash                   0      0.00%     52.00% # Class of executed instruction
system.cpu.op_class::SimdSha1Hash2                  0      0.00%     52.00% # Class of executed instruction
system.cpu.op_class::SimdSha256Hash                 0      0.00%     52.00% # Class of executed instruction
system.cpu.op_class::SimdSha256Hash2                0      0.00%     52.00% # Class of executed instruction
system.cpu.op_class::SimdShaSigma2                  0      0.00%     52.00% # Class of executed instruction
system.cpu.op_class::SimdShaSigma3                  0      0.00%     52.00% # Class of executed instruction
system.cpu.op_class::SimdPredAlu                    0      0.00%     52.00% # Class of executed instruction
system.cpu.op_class::MemRead                        9     36.00%     88.00% # Class of executed instruction
system.cpu.op_class::MemWrite                       3     12.00%    100.00% # Class of executed instruction
system.cpu.op_class::FloatMemRead                   0      0.00%    100.00% # Class of executed instruction
system.cpu.op_class::FloatMemWrite                  0      0.00%    100.00% # Class of executed instruction
system.cpu.op_class::IprAccess                      0      0.00%    100.00% # Class of executed instruction
system.cpu.op_class::InstPrefetch                   0      0.00%    100.00% # Class of executed instruction
system.cpu.op_class::total                         25                       # Class of executed instruction
system.cpu.workload.numSyscalls                     0                       # Number of system calls
system.membus.snoop_filter.hit_multi_requests            0                       # Number of requests hitting in the snoop filter with multiple (>1) holders of the requested data.
system.membus.snoop_filter.hit_multi_snoops            0                       # Number of snoops hitting in the snoop filter with multiple (>1) holders of the requested data.
system.membus.snoop_filter.hit_single_requests         2360                       # Number of requests hitting in the snoop filter with a single holder of the requested data.
system.membus.snoop_filter.hit_single_snoops            0                       # Number of snoops hitting in the snoop filter with a single holder of the requested data.
system.membus.snoop_filter.tot_requests          8089                       # Total number of requests made to the snoop filter.
system.membus.snoop_filter.tot_snoops               0                       # Total number of snoops made to the snoop filter.
system.switch_cpus.cc_regfile_reads            272361                       # number of cc regfile reads
system.switch_cpus.cc_regfile_writes           272910                       # number of cc regfile writes
system.switch_cpus.committedInsts             1000000                       # Number of Instructions Simulated
system.switch_cpus.committedOps               1000000                       # Number of Ops (including micro ops) Simulated
system.switch_cpus.cpi                       1.169354                       # CPI: Cycles Per Instruction
system.switch_cpus.cpi_total                 1.169354                       # CPI: Total CPI of All Threads
system.switch_cpus.idleCycles                     535                       # Total number of cycles that the CPU has spent unscheduled due to idling
system.switch_cpus.iew.branchMispredicts         2222                       # Number of branch mispredicts detected at execute
system.switch_cpus.iew.exec_branches            92477                       # Number of branches executed
system.switch_cpus.iew.exec_nop                     0                       # number of nop insts executed
system.switch_cpus.iew.exec_rate             0.899243                       # Inst execution rate
system.switch_cpus.iew.exec_refs               528044                       # number of memory reference insts executed
system.switch_cpus.iew.exec_stores              96218                       # Number of stores executed
system.switch_cpus.iew.exec_swp                     0                       # number of swp insts executed
system.switch_cpus.iew.iewBlockCycles           25133                       # Number of cycles IEW is blocking
system.switch_cpus.iew.iewDispLoadInsts        451998                       # Number of dispatched load instructions
system.switch_cpus.iew.iewDispNonSpecInsts            0                       # Number of dispatched non-speculative instructions
system.switch_cpus.iew.iewDispSquashedInsts            0                       # Number of squashed instructions skipped by dispatch
system.switch_cpus.iew.iewDispStoreInsts       103164                       # Number of dispatched store instructions
system.switch_cpus.iew.iewDispatchedInsts      1106533                       # Number of instructions dispatched to IQ
system.switch_cpus.iew.iewExecLoadInsts        431826                       # Number of load instructions executed
system.switch_cpus.iew.iewExecSquashedInsts         3986                       # Number of squashed instructions skipped in execute
system.switch_cpus.iew.iewExecutedInsts       1051533                       # Number of executed instructions
system.switch_cpus.iew.iewIQFullEvents              0                       # Number of times the IQ has become full, causing a stall
system.switch_cpus.iew.iewIdleCycles                0                       # Number of cycles IEW is idle
system.switch_cpus.iew.iewLSQFullEvents             0                       # Number of times the LSQ has become full, causing a stall
system.switch_cpus.iew.iewSquashCycles           2066                       # Number of cycles IEW is squashing
system.switch_cpus.iew.iewUnblockCycles             0                       # Number of cycles IEW is unblocking
system.switch_cpus.iew.memOrderViolationEvents           23                       # Number of memory order violations
system.switch_cpus.iew.predictedNotTakenIncorrect          654                       # Number of branches that were predicted not taken incorrectly
system.switch_cpus.iew.predictedTakenIncorrect         1568                       # Number of branches that were predicted taken incorrectly
system.switch_cpus.iew.wb_consumers           1017998                       # num instructions consuming a value
system.switch_cpus.iew.wb_count               1047250                       # cumulative count of insts written-back
system.switch_cpus.iew.wb_fanout             0.820667                       # average fanout of values written-back
system.switch_cpus.iew.wb_producers            835437                       # num instructions producing a value
system.switch_cpus.iew.wb_rate               0.895580                       # insts written-back per cycle
system.switch_cpus.iew.wb_sent                1048199                       # cumulative count of insts sent to commit
system.switch_cpus.int_regfile_reads          1146496                       # number of integer regfile reads
system.switch_cpus.int_regfile_writes          859948                       # number of integer regfile writes
system.switch_cpus.ipc                       0.855173                       # IPC: Instructions Per Cycle
system.switch_cpus.ipc_total                 0.855173                       # IPC: Total IPC of All Threads
system.switch_cpus.iq.FU_type_0::No_OpClass            0      0.00%      0.00% # Type of FU issued
system.switch_cpus.iq.FU_type_0::IntAlu        523879     49.63%     49.63% # Type of FU issued
system.switch_cpus.iq.FU_type_0::IntMult            0      0.00%     49.63% # Type of FU issued
system.switch_cpus.iq.FU_type_0::IntDiv             0      0.00%     49.63% # Type of FU issued
system.switch_cpus.iq.FU_type_0::FloatAdd            0      0.00%     49.63% # Type of FU issued
system.switch_cpus.iq.FU_type_0::FloatCmp            0      0.00%     49.63% # Type of FU issued
system.switch_cpus.iq.FU_type_0::FloatCvt            0      0.00%     49.63% # Type of FU issued
system.switch_cpus.iq.FU_type_0::FloatMult            0      0.00%     49.63% # Type of FU issued
system.switch_cpus.iq.FU_type_0::FloatMultAcc            0      0.00%     49.63% # Type of FU issued
system.switch_cpus.iq.FU_type_0::FloatDiv            0      0.00%     49.63% # Type of FU issued
system.switch_cpus.iq.FU_type_0::FloatMisc            0      0.00%     49.63% # Type of FU issued
system.switch_cpus.iq.FU_type_0::FloatSqrt            0      0.00%     49.63% # Type of FU issued
system.switch_cpus.iq.FU_type_0::SimdAdd            0      0.00%     49.63% # Type of FU issued
system.switch_cpus.iq.FU_type_0::SimdAddAcc            0      0.00%     49.63% # Type of FU issued
system.switch_cpus.iq.FU_type_0::SimdAlu            0      0.00%     49.63% # Type of FU issued
system.switch_cpus.iq.FU_type_0::SimdCmp            0      0.00%     49.63% # Type of FU issued
system.switch_cpus.iq.FU_type_0::SimdCvt            0      0.00%     49.63% # Type of FU issued
system.switch_cpus.iq.FU_type_0::SimdMisc            0      0.00%     49.63% # Type of FU issued
system.switch_cpus.iq.FU_type_0::SimdMult            0      0.00%     49.63% # Type of FU issued
system.switch_cpus.iq.FU_type_0::SimdMultAcc            0      0.00%     49.63% # Type of FU issued
system.switch_cpus.iq.FU_type_0::SimdShift            0      0.00%     49.63% # Type of FU issued
system.switch_cpus.iq.FU_type_0::SimdShiftAcc            0      0.00%     49.63% # Type of FU issued
system.switch_cpus.iq.FU_type_0::SimdDiv            0      0.00%     49.63% # Type of FU issued
system.switch_cpus.iq.FU_type_0::SimdSqrt            0      0.00%     49.63% # Type of FU issued
system.switch_cpus.iq.FU_type_0::SimdFloatAdd            0      0.00%     49.63% # Type of FU issued
system.switch_cpus.iq.FU_type_0::SimdFloatAlu            0      0.00%     49.63% # Type of FU issued
system.switch_cpus.iq.FU_type_0::SimdFloatCmp            0      0.00%     49.63% # Type of FU issued
system.switch_cpus.iq.FU_type_0::SimdFloatCvt            0      0.00%     49.63% # Type of FU issued
system.switch_cpus.iq.FU_type_0::SimdFloatDiv            0      0.00%     49.63% # Type of FU issued
system.switch_cpus.iq.FU_type_0::SimdFloatMisc            0      0.00%     49.63% # Type of FU issued
system.switch_cpus.iq.FU_type_0::SimdFloatMult            0      0.00%     49.63% # Type of FU issued
system.switch_cpus.iq.FU_type_0::SimdFloatMultAcc            0      0.00%     49.63% # Type of FU issued
system.switch_cpus.iq.FU_type_0::SimdFloatSqrt            0      0.00%     49.63% # Type of FU issued
system.switch_cpus.iq.FU_type_0::SimdReduceAdd            0      0.00%     49.63% # Type of FU issued
system.switch_cpus.iq.FU_type_0::SimdReduceAlu            0      0.00%     49.63% # Type of FU issued
system.switch_cpus.iq.FU_type_0::SimdReduceCmp            0      0.00%     49.63% # Type of FU issued
system.switch_cpus.iq.FU_type_0::SimdFloatReduceAdd            0      0.00%     49.63% # Type of FU issued
system.switch_cpus.iq.FU_type_0::SimdFloatReduceCmp            0      0.00%     49.63% # Type of FU issued
system.switch_cpus.iq.FU_type_0::SimdAes            0      0.00%     49.63% # Type of FU issued
system.switch_cpus.iq.FU_type_0::SimdAesMix            0      0.00%     49.63% # Type of FU issued
system.switch_cpus.iq.FU_type_0::SimdSha1Hash            0      0.00%     49.63% # Type of FU issued
system.switch_cpus.iq.FU_type_0::SimdSha1Hash2            0      0.00%     49.63% # Type of FU issued
system.switch_cpus.iq.FU_type_0::SimdSha256Hash            0      0.00%     49.63% # Type of FU issued
system.switch_cpus.iq.FU_type_0::SimdSha256Hash2            0      0.00%     49.63% # Type of FU issued
system.switch_cpus.iq.FU_type_0::SimdShaSigma2            0      0.00%     49.63% # Type of FU issued
system.switch_cpus.iq.FU_type_0::SimdShaSigma3            0      0.00%     49.63% # Type of FU issued
system.switch_cpus.iq.FU_type_0::SimdPredAlu            0      0.00%     49.63% # Type of FU issued
system.switch_cpus.iq.FU_type_0::MemRead       434606     41.17%     90.81% # Type of FU issued
system.switch_cpus.iq.FU_type_0::MemWrite        97035      9.19%    100.00% # Type of FU issued
system.switch_cpus.iq.FU_type_0::FloatMemRead            0      0.00%    100.00% # Type of FU issued
system.switch_cpus.iq.FU_type_0::FloatMemWrite            0      0.00%    100.00% # Type of FU issued
system.switch_cpus.iq.FU_type_0::IprAccess            0      0.00%    100.00% # Type of FU issued
system.switch_cpus.iq.FU_type_0::InstPrefetch            0      0.00%    100.00% # Type of FU issued
system.switch_cpus.iq.FU_type_0::total        1055520                       # Type of FU issued
system.switch_cpus.iq.fp_alu_accesses               0                       # Number of floating point alu accesses
system.switch_cpus.iq.fp_inst_queue_reads            0                       # Number of floating instruction queue reads
system.switch_cpus.iq.fp_inst_queue_wakeup_accesses            0                       # Number of floating instruction queue wakeup accesses
system.switch_cpus.iq.fp_inst_queue_writes            0                       # Number of floating instruction queue writes
system.switch_cpus.iq.fu_busy_cnt              362905                       # FU busy when requested
system.switch_cpus.iq.fu_busy_rate           0.343816                       # FU busy rate (busy events/executed inst)
system.switch_cpus.iq.fu_full::No_OpClass            0      0.00%      0.00% # attempts to use FU when none available
system.switch_cpus.iq.fu_full::IntAlu           42605     11.74%     11.74% # attempts to use FU when none available
system.switch_cpus.iq.fu_full::IntMult              0      0.00%     11.74% # attempts to use FU when none available
system.switch_cpus.iq.fu_full::IntDiv               0      0.00%     11.74% # attempts to use FU when none available
system.switch_cpus.iq.fu_full::FloatAdd             0      0.00%     11.74% # attempts to use FU when none available
system.switch_cpus.iq.fu_full::FloatCmp             0      0.00%     11.74% # attempts to use FU when none available
system.switch_cpus.iq.fu_full::FloatCvt             0      0.00%     11.74% # attempts to use FU when none available
system.switch_cpus.iq.fu_full::FloatMult            0      0.00%     11.74% # attempts to use FU when none available
system.switch_cpus.iq.fu_full::FloatMultAcc            0      0.00%     11.74% # attempts to use FU when none available
system.switch_cpus.iq.fu_full::FloatDiv             0      0.00%     11.74% # attempts to use FU when none available
system.switch_cpus.iq.fu_full::FloatMisc            0      0.00%     11.74% # attempts to use FU when none available
system.switch_cpus.iq.fu_full::FloatSqrt            0      0.00%     11.74% # attempts to use FU when none available
system.switch_cpus.iq.fu_full::SimdAdd              0      0.00%     11.74% # attempts to use FU when none available
system.switch_cpus.iq.fu_full::SimdAddAcc            0      0.00%     11.74% # attempts to use FU when none available
system.switch_cpus.iq.fu_full::SimdAlu              0      0.00%     11.74% # attempts to use FU when none available
system.switch_cpus.iq.fu_full::SimdCmp              0      0.00%     11.74% # attempts to use FU when none available
system.switch_cpus.iq.fu_full::SimdCvt              0      0.00%     11.74% # attempts to use FU when none available
system.switch_cpus.iq.fu_full::SimdMisc             0      0.00%     11.74% # attempts to use FU when none available
system.switch_cpus.iq.fu_full::SimdMult             0      0.00%     11.74% # attempts to use FU when none available
system.switch_cpus.iq.fu_full::SimdMultAcc            0      0.00%     11.74% # attempts to use FU when none available
system.switch_cpus.iq.fu_full::SimdShift            0      0.00%     11.74% # attempts to use FU when none available
system.switch_cpus.iq.fu_full::SimdShiftAcc            0      0.00%     11.74% # attempts to use FU when none available
system.switch_cpus.iq.fu_full::SimdDiv              0      0.00%     11.74% # attempts to use FU when none available
system.switch_cpus.iq.fu_full::SimdSqrt             0      0.00%     11.74% # attempts to use FU when none available
system.switch_cpus.iq.fu_full::SimdFloatAdd            0      0.00%     11.74% # attempts to use FU when none available
system.switch_cpus.iq.fu_full::SimdFloatAlu            0      0.00%     11.74% # attempts to use FU when none available
system.switch_cpus.iq.fu_full::SimdFloatCmp            0      0.00%     11.74% # attempts to use FU when none available
system.switch_cpus.iq.fu_full::SimdFloatCvt            0      0.00%     11.74% # attempts to use FU when none available
system.switch_cpus.iq.fu_full::SimdFloatDiv            0      0.00%     11.74% # attempts to use FU when none available
system.switch_cpus.iq.fu_full::SimdFloatMisc            0      0.00%     11.74% # attempts to use FU when none available
system.switch_cpus.iq.fu_full::SimdFloatMult            0      0.00%     11.74% # attempts to use FU when none available
system.switch_cpus.iq.fu_full::SimdFloatMultAcc            0      0.00%     11.74% # attempts to use FU when none available
system.switch_cpus.iq.fu_full::SimdFloatSqrt            0      0.00%     11.74% # attempts to use FU when none available
system.switch_cpus.iq.fu_full::SimdReduceAdd            0      0.00%     11.74% # attempts to use FU when none available
system.switch_cpus.iq.fu_full::SimdReduceAlu            0      0.00%     11.74% # attempts to use FU when none available
system.switch_cpus.iq.fu_full::SimdReduceCmp            0      0.00%     11.74% # attempts to use FU when none available
system.switch_cpus.iq.fu_full::SimdFloatReduceAdd            0      0.00%     11.74% # attempts to use FU when none available
system.switch_cpus.iq.fu_full::SimdFloatReduceCmp            0      0.00%     11.74% # attempts to use FU when none available
system.switch_cpus.iq.fu_full::SimdAes              0      0.00%     11.74% # attempts to use FU when none available
system.switch_cpus.iq.fu_full::SimdAesMix            0      0.00%     11.74% # attempts to use FU when none available
system.switch_cpus.iq.fu_full::SimdSha1Hash            0      0.00%     11.74% # attempts to use FU when none available
system.switch_cpus.iq.fu_full::SimdSha1Hash2            0      0.00%     11.74% # attempts to use FU when none available
system.switch_cpus.iq.fu_full::SimdSha256Hash            0      0.00%     11.74% # attempts to use FU when none available
system.switch_cpus.iq.fu_full::SimdSha256Hash2            0      0.00%     11.74% # attempts to use FU when none available
system.switch_cpus.iq.fu_full::SimdShaSigma2            0      0.00%     11.74% # attempts to use FU when none available
system.switch_cpus.iq.fu_full::SimdShaSigma3            0      0.00%     11.74% # attempts to use FU when none available
system.switch_cpus.iq.fu_full::SimdPredAlu            0      0.00%     11.74% # attempts to use FU when none available
system.switch_cpus.iq.fu_full::MemRead         319503     88.04%     99.78% # attempts to use FU when none available
system.switch_cpus.iq.fu_full::MemWrite           797      0.22%    100.00% # attempts to use FU when none available
system.switch_cpus.iq.fu_full::FloatMemRead            0      0.00%    100.00% # attempts to use FU when none available
system.switch_cpus.iq.fu_full::FloatMemWrite            0      0.00%    100.00% # attempts to use FU when none available
system.switch_cpus.iq.fu_full::IprAccess            0      0.00%    100.00% # attempts to use FU when none available
system.switch_cpus.iq.fu_full::InstPrefetch            0      0.00%    100.00% # attempts to use FU when none available
system.switch_cpus.iq.int_alu_accesses        1418425                       # Number of integer alu accesses
system.switch_cpus.iq.int_inst_queue_reads      3645401                       # Number of integer instruction queue reads
system.switch_cpus.iq.int_inst_queue_wakeup_accesses      1047250                       # Number of integer instruction queue wakeup accesses
system.switch_cpus.iq.int_inst_queue_writes      1213055                       # Number of integer instruction queue writes
system.switch_cpus.iq.iqInstsAdded            1106533                       # Number of instructions added to the IQ (excludes non-spec)
system.switch_cpus.iq.iqInstsIssued           1055520                       # Number of instructions issued
system.switch_cpus.iq.iqSquashedInstsExamined       106499                       # Number of squashed instructions iterated over during squash; mainly for profiling
system.switch_cpus.iq.iqSquashedInstsIssued         2638                       # Number of squashed instructions issued
system.switch_cpus.iq.iqSquashedOperandsExamined        87181                       # Number of squashed operands that are examined and possibly removed from graph
system.switch_cpus.iq.issued_per_cycle::samples      1168819                       # Number of insts issued each cycle
system.switch_cpus.iq.issued_per_cycle::mean     0.903065                       # Number of insts issued each cycle
system.switch_cpus.iq.issued_per_cycle::stdev     1.139014                       # Number of insts issued each cycle
system.switch_cpus.iq.issued_per_cycle::underflows            0      0.00%      0.00% # Number of insts issued each cycle
system.switch_cpus.iq.issued_per_cycle::0       640261     54.78%     54.78% # Number of insts issued each cycle
system.switch_cpus.iq.issued_per_cycle::1       170587     14.59%     69.37% # Number of insts issued each cycle
system.switch_cpus.iq.issued_per_cycle::2       200053     17.12%     86.49% # Number of insts issued each cycle
system.switch_cpus.iq.issued_per_cycle::3       146845     12.56%     99.05% # Number of insts issued each cycle
system.switch_cpus.iq.issued_per_cycle::4        11073      0.95%    100.00% # Number of insts issued each cycle
system.switch_cpus.iq.issued_per_cycle::5            0      0.00%    100.00% # Number of insts issued each cycle
system.switch_cpus.iq.issued_per_cycle::6            0      0.00%    100.00% # Number of insts issued each cycle
system.switch_cpus.iq.issued_per_cycle::7            0      0.00%    100.00% # Number of insts issued each cycle
system.switch_cpus.iq.issued_per_cycle::8            0      0.00%    100.00% # Number of insts issued each cycle
system.switch_cpus.iq.issued_per_cycle::overflows            0      0.00%    100.00% # Number of insts issued each cycle
system.switch_cpus.iq.issued_per_cycle::min_value            0                       # Number of insts issued each cycle
system.switch_cpus.iq.issued_per_cycle::max_value            4                       # Number of insts issued each cycle
system.switch_cpus.iq.issued_per_cycle::total      1168819                       # Number of insts issued each cycle
system.switch_cpus.iq.rate                   0.902652                       # Inst issue rate
system.switch_cpus.iq.vec_alu_accesses              0                       # Number of vector alu accesses
system.switch_cpus.iq.vec_inst_queue_reads            0                       # Number of vector instruction queue reads
system.switch_cpus.iq.vec_inst_queue_wakeup_accesses            0                       # Number of vector instruction queue wakeup accesses
system.switch_cpus.iq.vec_inst_queue_writes            0                       # Number of vector instruction queue writes
system.switch_cpus.memDep0.conflictingLoads       186032                       # Number of conflicting loads.
system.switch_cpus.memDep0.conflictingStores        75911                       # Number of conflicting stores.
system.switch_cpus.memDep0.insertedLoads       451998                       # Number of loads inserted to the mem dependence unit.
system.switch_cpus.memDep0.insertedStores       103164                       # Number of stores inserted to the mem dependence unit.
system.switch_cpus.misc_regfile_reads         2432858                       # number of misc regfile reads
system.switch_cpus.misc_regfile_writes              1                       # number of misc regfile writes
system.switch_cpus.numCycles                  1169354                       # number of cpu cycles simulated
system.switch_cpus.numWorkItemsCompleted            0                       # number of work items this cpu completed
system.switch_cpus.numWorkItemsStarted              0                       # number of work items this cpu started
system.switch_cpus.timesIdled                      27                       # Number of times that the entire CPU went into an idle state and unscheduled itself
system.switch_cpus.vec_regfile_writes              44                       # number of vector regfile writes
system.tol2bus.snoop_filter.hit_multi_requests            0                       # Number of requests hitting in the snoop filter with multiple (>1) holders of the requested data.
system.tol2bus.snoop_filter.hit_multi_snoops            0                       # Number of snoops hitting in the snoop filter with multiple (>1) holders of the requested data.
system.tol2bus.snoop_filter.hit_single_requests        37176                       # Number of requests hitting in the snoop filter with a single holder of the requested data.
system.tol2bus.snoop_filter.hit_single_snoops            2                       # Number of snoops hitting in the snoop filter with a single holder of the requested data.
system.tol2bus.snoop_filter.tot_requests        74490                       # Total number of requests made to the snoop filter.
system.tol2bus.snoop_filter.tot_snoops              2                       # Total number of snoops made to the snoop filter.
system.clk_domain.clock                          1000                       # Clock period in ticks
system.cpu.dcache.demand_hits::.cpu.data            7                       # number of demand (read+write) hits
system.cpu.dcache.demand_hits::.switch_cpus.data       273532                       # number of demand (read+write) hits
system.cpu.dcache.demand_hits::total           273539                       # number of demand (read+write) hits
system.cpu.dcache.overall_hits::.cpu.data            7                       # number of overall hits
system.cpu.dcache.overall_hits::.switch_cpus.data       273532                       # number of overall hits
system.cpu.dcache.overall_hits::total          273539                       # number of overall hits
system.cpu.dcache.demand_misses::.cpu.data            5                       # number of demand (read+write) misses
system.cpu.dcache.demand_misses::.switch_cpus.data        59358                       # number of demand (read+write) misses
system.cpu.dcache.demand_misses::total          59363                       # number of demand (read+write) misses
system.cpu.dcache.overall_misses::.cpu.data            5                       # number of overall misses
system.cpu.dcache.overall_misses::.switch_cpus.data        59358                       # number of overall misses
system.cpu.dcache.overall_misses::total         59363                       # number of overall misses
system.cpu.dcache.demand_miss_latency::.switch_cpus.data   1572795984                       # number of demand (read+write) miss cycles
system.cpu.dcache.demand_miss_latency::total   1572795984                       # number of demand (read+write) miss cycles
system.cpu.dcache.overall_miss_latency::.switch_cpus.data   1572795984                       # number of overall miss cycles
system.cpu.dcache.overall_miss_latency::total   1572795984                       # number of overall miss cycles
system.cpu.dcache.demand_accesses::.cpu.data           12                       # number of demand (read+write) accesses
system.cpu.dcache.demand_accesses::.switch_cpus.data       332890                       # number of demand (read+write) accesses
system.cpu.dcache.demand_accesses::total       332902                       # number of demand (read+write) accesses
system.cpu.dcache.overall_accesses::.cpu.data           12                       # number of overall (read+write) accesses
system.cpu.dcache.overall_accesses::.switch_cpus.data       332890                       # number of overall (read+write) accesses
system.cpu.dcache.overall_accesses::total       332902                       # number of overall (read+write) accesses
system.cpu.dcache.demand_miss_rate::.cpu.data     0.416667                       # miss rate for demand accesses
system.cpu.dcache.demand_miss_rate::.switch_cpus.data     0.178311                       # miss rate for demand accesses
system.cpu.dcache.demand_miss_rate::total     0.178320                       # miss rate for demand accesses
system.cpu.dcache.overall_miss_rate::.cpu.data     0.416667                       # miss rate for overall accesses
system.cpu.dcache.overall_miss_rate::.switch_cpus.data     0.178311                       # miss rate for overall accesses
system.cpu.dcache.overall_miss_rate::total     0.178320                       # miss rate for overall accesses
system.cpu.dcache.demand_avg_miss_latency::.switch_cpus.data 26496.781967                       # average overall miss latency
system.cpu.dcache.demand_avg_miss_latency::total 26494.550208                       # average overall miss latency
system.cpu.dcache.overall_avg_miss_latency::.switch_cpus.data 26496.781967                       # average overall miss latency
system.cpu.dcache.overall_avg_miss_latency::total 26494.550208                       # average overall miss latency
system.cpu.dcache.blocked_cycles::no_mshrs         2360                       # number of cycles access was blocked
system.cpu.dcache.blocked_cycles::no_targets         4752                       # number of cycles access was blocked
system.cpu.dcache.blocked::no_mshrs               352                       # number of cycles access was blocked
system.cpu.dcache.blocked::no_targets             381                       # number of cycles access was blocked
system.cpu.dcache.avg_blocked_cycles::no_mshrs     6.704545                       # average number of cycles each access was blocked
system.cpu.dcache.avg_blocked_cycles::no_targets    12.472441                       # average number of cycles each access was blocked
system.cpu.dcache.writebacks::.writebacks        36857                       # number of writebacks
system.cpu.dcache.writebacks::total             36857                       # number of writebacks
system.cpu.dcache.demand_mshr_hits::.switch_cpus.data        22377                       # number of demand (read+write) MSHR hits
system.cpu.dcache.demand_mshr_hits::total        22377                       # number of demand (read+write) MSHR hits
system.cpu.dcache.overall_mshr_hits::.switch_cpus.data        22377                       # number of overall MSHR hits
system.cpu.dcache.overall_mshr_hits::total        22377                       # number of overall MSHR hits
system.cpu.dcache.demand_mshr_misses::.switch_cpus.data        36981                       # number of demand (read+write) MSHR misses
system.cpu.dcache.demand_mshr_misses::total        36981                       # number of demand (read+write) MSHR misses
system.cpu.dcache.overall_mshr_misses::.switch_cpus.data        36981                       # number of overall MSHR misses
system.cpu.dcache.overall_mshr_misses::total        36981                       # number of overall MSHR misses
system.cpu.dcache.demand_mshr_miss_latency::.switch_cpus.data    590000799                       # number of demand (read+write) MSHR miss cycles
system.cpu.dcache.demand_mshr_miss_latency::total    590000799                       # number of demand (read+write) MSHR miss cycles
system.cpu.dcache.overall_mshr_miss_latency::.switch_cpus.data    590000799                       # number of overall MSHR miss cycles
system.cpu.dcache.overall_mshr_miss_latency::total    590000799                       # number of overall MSHR miss cycles
system.cpu.dcache.demand_mshr_miss_rate::.switch_cpus.data     0.111091                       # mshr miss rate for demand accesses
system.cpu.dcache.demand_mshr_miss_rate::total     0.111087                       # mshr miss rate for demand accesses
system.cpu.dcache.overall_mshr_miss_rate::.switch_cpus.data     0.111091                       # mshr miss rate for overall accesses
system.cpu.dcache.overall_mshr_miss_rate::total     0.111087                       # mshr miss rate for overall accesses
system.cpu.dcache.demand_avg_mshr_miss_latency::.switch_cpus.data 15954.160217                       # average overall mshr miss latency
system.cpu.dcache.demand_avg_mshr_miss_latency::total 15954.160217                       # average overall mshr miss latency
system.cpu.dcache.overall_avg_mshr_miss_latency::.switch_cpus.data 15954.160217                       # average overall mshr miss latency
system.cpu.dcache.overall_avg_mshr_miss_latency::total 15954.160217                       # average overall mshr miss latency
system.cpu.dcache.replacements                  36857                       # number of replacements
system.cpu.dcache.ReadReq_hits::.cpu.data            5                       # number of ReadReq hits
system.cpu.dcache.ReadReq_hits::.switch_cpus.data       183699                       # number of ReadReq hits
system.cpu.dcache.ReadReq_hits::total          183704                       # number of ReadReq hits
system.cpu.dcache.ReadReq_misses::.cpu.data            4                       # number of ReadReq misses
system.cpu.dcache.ReadReq_misses::.switch_cpus.data        56802                       # number of ReadReq misses
system.cpu.dcache.ReadReq_misses::total         56806                       # number of ReadReq misses
system.cpu.dcache.ReadReq_miss_latency::.switch_cpus.data   1546394000                       # number of ReadReq miss cycles
system.cpu.dcache.ReadReq_miss_latency::total   1546394000                       # number of ReadReq miss cycles
system.cpu.dcache.ReadReq_accesses::.cpu.data            9                       # number of ReadReq accesses(hits+misses)
system.cpu.dcache.ReadReq_accesses::.switch_cpus.data       240501                       # number of ReadReq accesses(hits+misses)
system.cpu.dcache.ReadReq_accesses::total       240510                       # number of ReadReq accesses(hits+misses)
system.cpu.dcache.ReadReq_miss_rate::.cpu.data     0.444444                       # miss rate for ReadReq accesses
system.cpu.dcache.ReadReq_miss_rate::.switch_cpus.data     0.236182                       # miss rate for ReadReq accesses
system.cpu.dcache.ReadReq_miss_rate::total     0.236190                       # miss rate for ReadReq accesses
system.cpu.dcache.ReadReq_avg_miss_latency::.switch_cpus.data 27224.287877                       # average ReadReq miss latency
system.cpu.dcache.ReadReq_avg_miss_latency::total 27222.370876                       # average ReadReq miss latency
system.cpu.dcache.ReadReq_mshr_hits::.switch_cpus.data        20434                       # number of ReadReq MSHR hits
system.cpu.dcache.ReadReq_mshr_hits::total        20434                       # number of ReadReq MSHR hits
system.cpu.dcache.ReadReq_mshr_misses::.switch_cpus.data        36368                       # number of ReadReq MSHR misses
system.cpu.dcache.ReadReq_mshr_misses::total        36368                       # number of ReadReq MSHR misses
system.cpu.dcache.ReadReq_mshr_miss_latency::.switch_cpus.data    582619600                       # number of ReadReq MSHR miss cycles
system.cpu.dcache.ReadReq_mshr_miss_latency::total    582619600                       # number of ReadReq MSHR miss cycles
system.cpu.dcache.ReadReq_mshr_miss_rate::.switch_cpus.data     0.151218                       # mshr miss rate for ReadReq accesses
system.cpu.dcache.ReadReq_mshr_miss_rate::total     0.151212                       # mshr miss rate for ReadReq accesses
system.cpu.dcache.ReadReq_avg_mshr_miss_latency::.switch_cpus.data 16020.116586                       # average ReadReq mshr miss latency
system.cpu.dcache.ReadReq_avg_mshr_miss_latency::total 16020.116586                       # average ReadReq mshr miss latency
system.cpu.dcache.WriteReq_hits::.cpu.data            2                       # number of WriteReq hits
system.cpu.dcache.WriteReq_hits::.switch_cpus.data        89833                       # number of WriteReq hits
system.cpu.dcache.WriteReq_hits::total          89835                       # number of WriteReq hits
system.cpu.dcache.WriteReq_misses::.cpu.data            1                       # number of WriteReq misses
system.cpu.dcache.WriteReq_misses::.switch_cpus.data         2556                       # number of WriteReq misses
system.cpu.dcache.WriteReq_misses::total         2557                       # number of WriteReq misses
system.cpu.dcache.WriteReq_miss_latency::.switch_cpus.data     26401984                       # number of WriteReq miss cycles
system.cpu.dcache.WriteReq_miss_latency::total     26401984                       # number of WriteReq miss cycles
system.cpu.dcache.WriteReq_accesses::.cpu.data            3                       # number of WriteReq accesses(hits+misses)
system.cpu.dcache.WriteReq_accesses::.switch_cpus.data        92389                       # number of WriteReq accesses(hits+misses)
system.cpu.dcache.WriteReq_accesses::total        92392                       # number of WriteReq accesses(hits+misses)
system.cpu.dcache.WriteReq_miss_rate::.cpu.data     0.333333                       # miss rate for WriteReq accesses
system.cpu.dcache.WriteReq_miss_rate::.switch_cpus.data     0.027666                       # miss rate for WriteReq accesses
system.cpu.dcache.WriteReq_miss_rate::total     0.027676                       # miss rate for WriteReq accesses
system.cpu.dcache.WriteReq_avg_miss_latency::.switch_cpus.data 10329.414710                       # average WriteReq miss latency
system.cpu.dcache.WriteReq_avg_miss_latency::total 10325.375049                       # average WriteReq miss latency
system.cpu.dcache.WriteReq_mshr_hits::.switch_cpus.data         1943                       # number of WriteReq MSHR hits
system.cpu.dcache.WriteReq_mshr_hits::total         1943                       # number of WriteReq MSHR hits
system.cpu.dcache.WriteReq_mshr_misses::.switch_cpus.data          613                       # number of WriteReq MSHR misses
system.cpu.dcache.WriteReq_mshr_misses::total          613                       # number of WriteReq MSHR misses
system.cpu.dcache.WriteReq_mshr_miss_latency::.switch_cpus.data      7381199                       # number of WriteReq MSHR miss cycles
system.cpu.dcache.WriteReq_mshr_miss_latency::total      7381199                       # number of WriteReq MSHR miss cycles
system.cpu.dcache.WriteReq_mshr_miss_rate::.switch_cpus.data     0.006635                       # mshr miss rate for WriteReq accesses
system.cpu.dcache.WriteReq_mshr_miss_rate::total     0.006635                       # mshr miss rate for WriteReq accesses
system.cpu.dcache.WriteReq_avg_mshr_miss_latency::.switch_cpus.data 12041.107667                       # average WriteReq mshr miss latency
system.cpu.dcache.WriteReq_avg_mshr_miss_latency::total 12041.107667                       # average WriteReq mshr miss latency
system.cpu.dcache.power_state.pwrStateResidencyTicks::UNDEFINED 570253725600                       # Cumulative time (in ticks) in various power states
system.cpu.dcache.tags.tagsinuse           127.200590                       # Cycle average of tags in use
system.cpu.dcache.tags.total_refs              309749                       # Total number of references to valid blocks.
system.cpu.dcache.tags.sampled_refs             36857                       # Sample count of references to valid blocks.
system.cpu.dcache.tags.avg_refs              8.404075                       # Average number of references to valid blocks.
system.cpu.dcache.tags.warmup_cycle      569785974800                       # Cycle when the warmup percentage was hit.
system.cpu.dcache.tags.occ_blocks::.cpu.data     0.021552                       # Average occupied blocks per requestor
system.cpu.dcache.tags.occ_blocks::.switch_cpus.data   127.179038                       # Average occupied blocks per requestor
system.cpu.dcache.tags.occ_percent::.cpu.data     0.000168                       # Average percentage of cache occupancy
system.cpu.dcache.tags.occ_percent::.switch_cpus.data     0.993586                       # Average percentage of cache occupancy
system.cpu.dcache.tags.occ_percent::total     0.993755                       # Average percentage of cache occupancy
system.cpu.dcache.tags.occ_task_id_blocks::1024          128                       # Occupied blocks per task id
system.cpu.dcache.tags.age_task_id_blocks_1024::0          124                       # Occupied blocks per task id
system.cpu.dcache.tags.age_task_id_blocks_1024::1            4                       # Occupied blocks per task id
system.cpu.dcache.tags.occ_task_id_percent::1024            1                       # Percentage of cache occupancy per task id
system.cpu.dcache.tags.tag_accesses            369887                       # Number of tag accesses
system.cpu.dcache.tags.data_accesses           369887                       # Number of data accesses
system.cpu.dcache.tags.power_state.pwrStateResidencyTicks::UNDEFINED 570253725600                       # Cumulative time (in ticks) in various power states
system.cpu.dtb.instHits                             0                       # ITB inst hits
system.cpu.dtb.instMisses                           0                       # ITB inst misses
system.cpu.dtb.readHits                             0                       # DTB read hits
system.cpu.dtb.readMisses                           0                       # DTB read misses
system.cpu.dtb.writeHits                            0                       # DTB write hits
system.cpu.dtb.writeMisses                          0                       # DTB write misses
system.cpu.dtb.inserts                              0                       # Number of times an entry is inserted into the TLB
system.cpu.dtb.flushTlb                             2                       # Number of times complete TLB was flushed
system.cpu.dtb.flushTlbMva                          0                       # Number of times TLB was flushed by MVA
system.cpu.dtb.flushTlbMvaAsid                      0                       # Number of times TLB was flushed by MVA & ASID
system.cpu.dtb.flushTlbAsid                         0                       # Number of times TLB was flushed by ASID
system.cpu.dtb.flushedEntries                       0                       # Number of entries that have been flushed from TLB
system.cpu.dtb.alignFaults                          0                       # Number of TLB faults due to alignment restrictions
system.cpu.dtb.prefetchFaults                       0                       # Number of TLB faults due to prefetch
system.cpu.dtb.domainFaults                         0                       # Number of TLB faults due to domain restrictions
system.cpu.dtb.permsFaults                          0                       # Number of TLB faults due to permissions restrictions
system.cpu.dtb.readAccesses                         0                       # DTB read accesses
system.cpu.dtb.writeAccesses                        0                       # DTB write accesses
system.cpu.dtb.instAccesses                         0                       # ITB inst accesses
system.cpu.dtb.hits                                 0                       # Total TLB (inst and data) hits
system.cpu.dtb.misses                               0                       # Total TLB (inst and data) misses
system.cpu.dtb.accesses                             0                       # Total TLB (inst and data) accesses
system.cpu.dtb.stage2_mmu.stage2_tlb.instHits            0                       # ITB inst hits
system.cpu.dtb.stage2_mmu.stage2_tlb.instMisses            0                       # ITB inst misses
system.cpu.dtb.stage2_mmu.stage2_tlb.readHits            0                       # DTB read hits
system.cpu.dtb.stage2_mmu.stage2_tlb.readMisses            0                       # DTB read misses
system.cpu.dtb.stage2_mmu.stage2_tlb.writeHits            0                       # DTB write hits
system.cpu.dtb.stage2_mmu.stage2_tlb.writeMisses            0                       # DTB write misses
system.cpu.dtb.stage2_mmu.stage2_tlb.inserts            0                       # Number of times an entry is inserted into the TLB
system.cpu.dtb.stage2_mmu.stage2_tlb.flushTlb            0                       # Number of times complete TLB was flushed
system.cpu.dtb.stage2_mmu.stage2_tlb.flushTlbMva            0                       # Number of times TLB was flushed by MVA
system.cpu.dtb.stage2_mmu.stage2_tlb.flushTlbMvaAsid            0                       # Number of times TLB was flushed by MVA & ASID
system.cpu.dtb.stage2_mmu.stage2_tlb.flushTlbAsid            0                       # Number of times TLB was flushed by ASID
system.cpu.dtb.stage2_mmu.stage2_tlb.flushedEntries            0                       # Number of entries that have been flushed from TLB
system.cpu.dtb.stage2_mmu.stage2_tlb.alignFaults            0                       # Number of TLB faults due to alignment restrictions
system.cpu.dtb.stage2_mmu.stage2_tlb.prefetchFaults            0                       # Number of TLB faults due to prefetch
system.cpu.dtb.stage2_mmu.stage2_tlb.domainFaults            0                       # Number of TLB faults due to domain restrictions
system.cpu.dtb.stage2_mmu.stage2_tlb.permsFaults            0                       # Number of TLB faults due to permissions restrictions
system.cpu.dtb.stage2_mmu.stage2_tlb.readAccesses            0                       # DTB read accesses
system.cpu.dtb.stage2_mmu.stage2_tlb.writeAccesses            0                       # DTB write accesses
system.cpu.dtb.stage2_mmu.stage2_tlb.instAccesses            0                       # ITB inst accesses
system.cpu.dtb.stage2_mmu.stage2_tlb.hits            0                       # Total TLB (inst and data) hits
system.cpu.dtb.stage2_mmu.stage2_tlb.misses            0                       # Total TLB (inst and data) misses
system.cpu.dtb.stage2_mmu.stage2_tlb.accesses            0                       # Total TLB (inst and data) accesses
system.cpu.dtb.stage2_mmu.stage2_tlb.walker.walks            0                       # Table walker walks requested
system.cpu.dtb.stage2_mmu.stage2_tlb.walker.requestOrigin_Requested::Data            0                       # Table walker requests started/completed, data/inst
system.cpu.dtb.stage2_mmu.stage2_tlb.walker.requestOrigin_Requested::Inst            0                       # Table walker requests started/completed, data/inst
system.cpu.dtb.stage2_mmu.stage2_tlb.walker.requestOrigin_Requested::total            0                       # Table walker requests started/completed, data/inst
system.cpu.dtb.stage2_mmu.stage2_tlb.walker.requestOrigin_Completed::Data            0                       # Table walker requests started/completed, data/inst
system.cpu.dtb.stage2_mmu.stage2_tlb.walker.requestOrigin_Completed::Inst            0                       # Table walker requests started/completed, data/inst
system.cpu.dtb.stage2_mmu.stage2_tlb.walker.requestOrigin_Completed::total            0                       # Table walker requests started/completed, data/inst
system.cpu.dtb.stage2_mmu.stage2_tlb.walker.requestOrigin::total            0                       # Table walker requests started/completed, data/inst
system.cpu.dtb.stage2_mmu.stage2_tlb.walker.power_state.pwrStateResidencyTicks::UNDEFINED 570253725600                       # Cumulative time (in ticks) in various power states
system.cpu.dtb.walker.walks                         0                       # Table walker walks requested
system.cpu.dtb.walker.requestOrigin_Requested::Data            0                       # Table walker requests started/completed, data/inst
system.cpu.dtb.walker.requestOrigin_Requested::Inst            0                       # Table walker requests started/completed, data/inst
system.cpu.dtb.walker.requestOrigin_Requested::total            0                       # Table walker requests started/completed, data/inst
system.cpu.dtb.walker.requestOrigin_Completed::Data            0                       # Table walker requests started/completed, data/inst
system.cpu.dtb.walker.requestOrigin_Completed::Inst            0                       # Table walker requests started/completed, data/inst
system.cpu.dtb.walker.requestOrigin_Completed::total            0                       # Table walker requests started/completed, data/inst
system.cpu.dtb.walker.requestOrigin::total            0                       # Table walker requests started/completed, data/inst
system.cpu.dtb.walker.power_state.pwrStateResidencyTicks::UNDEFINED 570253725600                       # Cumulative time (in ticks) in various power states
system.cpu.dtb_walker_cache.blocked_cycles::no_mshrs            0                       # number of cycles access was blocked
system.cpu.dtb_walker_cache.blocked_cycles::no_targets            0                       # number of cycles access was blocked
system.cpu.dtb_walker_cache.blocked::no_mshrs            0                       # number of cycles access was blocked
system.cpu.dtb_walker_cache.blocked::no_targets            0                       # number of cycles access was blocked
system.cpu.dtb_walker_cache.avg_blocked_cycles::no_mshrs          nan                       # average number of cycles each access was blocked
system.cpu.dtb_walker_cache.avg_blocked_cycles::no_targets          nan                       # average number of cycles each access was blocked
system.cpu.dtb_walker_cache.replacements            0                       # number of replacements
system.cpu.dtb_walker_cache.power_state.pwrStateResidencyTicks::UNDEFINED 570253725600                       # Cumulative time (in ticks) in various power states
system.cpu.dtb_walker_cache.tags.tagsinuse            0                       # Cycle average of tags in use
system.cpu.dtb_walker_cache.tags.total_refs            0                       # Total number of references to valid blocks.
system.cpu.dtb_walker_cache.tags.sampled_refs            0                       # Sample count of references to valid blocks.
system.cpu.dtb_walker_cache.tags.avg_refs          nan                       # Average number of references to valid blocks.
system.cpu.dtb_walker_cache.tags.warmup_cycle            0                       # Cycle when the warmup percentage was hit.
system.cpu.dtb_walker_cache.tags.tag_accesses            0                       # Number of tag accesses
system.cpu.dtb_walker_cache.tags.data_accesses            0                       # Number of data accesses
system.cpu.dtb_walker_cache.tags.power_state.pwrStateResidencyTicks::UNDEFINED 570253725600                       # Cumulative time (in ticks) in various power states
system.cpu.icache.demand_hits::.cpu.inst           22                       # number of demand (read+write) hits
system.cpu.icache.demand_hits::.switch_cpus.inst       162964                       # number of demand (read+write) hits
system.cpu.icache.demand_hits::total           162986                       # number of demand (read+write) hits
system.cpu.icache.overall_hits::.cpu.inst           22                       # number of overall hits
system.cpu.icache.overall_hits::.switch_cpus.inst       162964                       # number of overall hits
system.cpu.icache.overall_hits::total          162986                       # number of overall hits
system.cpu.icache.demand_misses::.cpu.inst            3                       # number of demand (read+write) misses
system.cpu.icache.demand_misses::.switch_cpus.inst          445                       # number of demand (read+write) misses
system.cpu.icache.demand_misses::total            448                       # number of demand (read+write) misses
system.cpu.icache.overall_misses::.cpu.inst            3                       # number of overall misses
system.cpu.icache.overall_misses::.switch_cpus.inst          445                       # number of overall misses
system.cpu.icache.overall_misses::total           448                       # number of overall misses
system.cpu.icache.demand_miss_latency::.switch_cpus.inst      5418400                       # number of demand (read+write) miss cycles
system.cpu.icache.demand_miss_latency::total      5418400                       # number of demand (read+write) miss cycles
system.cpu.icache.overall_miss_latency::.switch_cpus.inst      5418400                       # number of overall miss cycles
system.cpu.icache.overall_miss_latency::total      5418400                       # number of overall miss cycles
system.cpu.icache.demand_accesses::.cpu.inst           25                       # number of demand (read+write) accesses
system.cpu.icache.demand_accesses::.switch_cpus.inst       163409                       # number of demand (read+write) accesses
system.cpu.icache.demand_accesses::total       163434                       # number of demand (read+write) accesses
system.cpu.icache.overall_accesses::.cpu.inst           25                       # number of overall (read+write) accesses
system.cpu.icache.overall_accesses::.switch_cpus.inst       163409                       # number of overall (read+write) accesses
system.cpu.icache.overall_accesses::total       163434                       # number of overall (read+write) accesses
system.cpu.icache.demand_miss_rate::.cpu.inst     0.120000                       # miss rate for demand accesses
system.cpu.icache.demand_miss_rate::.switch_cpus.inst     0.002723                       # miss rate for demand accesses
system.cpu.icache.demand_miss_rate::total     0.002741                       # miss rate for demand accesses
system.cpu.icache.overall_miss_rate::.cpu.inst     0.120000                       # miss rate for overall accesses
system.cpu.icache.overall_miss_rate::.switch_cpus.inst     0.002723                       # miss rate for overall accesses
system.cpu.icache.overall_miss_rate::total     0.002741                       # miss rate for overall accesses
system.cpu.icache.demand_avg_miss_latency::.switch_cpus.inst 12176.179775                       # average overall miss latency
system.cpu.icache.demand_avg_miss_latency::total 12094.642857                       # average overall miss latency
system.cpu.icache.overall_avg_miss_latency::.switch_cpus.inst 12176.179775                       # average overall miss latency
system.cpu.icache.overall_avg_miss_latency::total 12094.642857                       # average overall miss latency
system.cpu.icache.blocked_cycles::no_mshrs          803                       # number of cycles access was blocked
system.cpu.icache.blocked_cycles::no_targets            0                       # number of cycles access was blocked
system.cpu.icache.blocked::no_mshrs                23                       # number of cycles access was blocked
system.cpu.icache.blocked::no_targets               0                       # number of cycles access was blocked
system.cpu.icache.avg_blocked_cycles::no_mshrs    34.913043                       # average number of cycles each access was blocked
system.cpu.icache.avg_blocked_cycles::no_targets          nan                       # average number of cycles each access was blocked
system.cpu.icache.writebacks::.writebacks          319                       # number of writebacks
system.cpu.icache.writebacks::total               319                       # number of writebacks
system.cpu.icache.demand_mshr_hits::.switch_cpus.inst          120                       # number of demand (read+write) MSHR hits
system.cpu.icache.demand_mshr_hits::total          120                       # number of demand (read+write) MSHR hits
system.cpu.icache.overall_mshr_hits::.switch_cpus.inst          120                       # number of overall MSHR hits
system.cpu.icache.overall_mshr_hits::total          120                       # number of overall MSHR hits
system.cpu.icache.demand_mshr_misses::.switch_cpus.inst          325                       # number of demand (read+write) MSHR misses
system.cpu.icache.demand_mshr_misses::total          325                       # number of demand (read+write) MSHR misses
system.cpu.icache.overall_mshr_misses::.switch_cpus.inst          325                       # number of overall MSHR misses
system.cpu.icache.overall_mshr_misses::total          325                       # number of overall MSHR misses
system.cpu.icache.demand_mshr_miss_latency::.switch_cpus.inst      4208400                       # number of demand (read+write) MSHR miss cycles
system.cpu.icache.demand_mshr_miss_latency::total      4208400                       # number of demand (read+write) MSHR miss cycles
system.cpu.icache.overall_mshr_miss_latency::.switch_cpus.inst      4208400                       # number of overall MSHR miss cycles
system.cpu.icache.overall_mshr_miss_latency::total      4208400                       # number of overall MSHR miss cycles
system.cpu.icache.demand_mshr_miss_rate::.switch_cpus.inst     0.001989                       # mshr miss rate for demand accesses
system.cpu.icache.demand_mshr_miss_rate::total     0.001989                       # mshr miss rate for demand accesses
system.cpu.icache.overall_mshr_miss_rate::.switch_cpus.inst     0.001989                       # mshr miss rate for overall accesses
system.cpu.icache.overall_mshr_miss_rate::total     0.001989                       # mshr miss rate for overall accesses
system.cpu.icache.demand_avg_mshr_miss_latency::.switch_cpus.inst 12948.923077                       # average overall mshr miss latency
system.cpu.icache.demand_avg_mshr_miss_latency::total 12948.923077                       # average overall mshr miss latency
system.cpu.icache.overall_avg_mshr_miss_latency::.switch_cpus.inst 12948.923077                       # average overall mshr miss latency
system.cpu.icache.overall_avg_mshr_miss_latency::total 12948.923077                       # average overall mshr miss latency
system.cpu.icache.replacements                    319                       # number of replacements
system.cpu.icache.ReadReq_hits::.cpu.inst           22                       # number of ReadReq hits
system.cpu.icache.ReadReq_hits::.switch_cpus.inst       162964                       # number of ReadReq hits
system.cpu.icache.ReadReq_hits::total          162986                       # number of ReadReq hits
system.cpu.icache.ReadReq_misses::.cpu.inst            3                       # number of ReadReq misses
system.cpu.icache.ReadReq_misses::.switch_cpus.inst          445                       # number of ReadReq misses
system.cpu.icache.ReadReq_misses::total           448                       # number of ReadReq misses
system.cpu.icache.ReadReq_miss_latency::.switch_cpus.inst      5418400                       # number of ReadReq miss cycles
system.cpu.icache.ReadReq_miss_latency::total      5418400                       # number of ReadReq miss cycles
system.cpu.icache.ReadReq_accesses::.cpu.inst           25                       # number of ReadReq accesses(hits+misses)
system.cpu.icache.ReadReq_accesses::.switch_cpus.inst       163409                       # number of ReadReq accesses(hits+misses)
system.cpu.icache.ReadReq_accesses::total       163434                       # number of ReadReq accesses(hits+misses)
system.cpu.icache.ReadReq_miss_rate::.cpu.inst     0.120000                       # miss rate for ReadReq accesses
system.cpu.icache.ReadReq_miss_rate::.switch_cpus.inst     0.002723                       # miss rate for ReadReq accesses
system.cpu.icache.ReadReq_miss_rate::total     0.002741                       # miss rate for ReadReq accesses
system.cpu.icache.ReadReq_avg_miss_latency::.switch_cpus.inst 12176.179775                       # average ReadReq miss latency
system.cpu.icache.ReadReq_avg_miss_latency::total 12094.642857                       # average ReadReq miss latency
system.cpu.icache.ReadReq_mshr_hits::.switch_cpus.inst          120                       # number of ReadReq MSHR hits
system.cpu.icache.ReadReq_mshr_hits::total          120                       # number of ReadReq MSHR hits
system.cpu.icache.ReadReq_mshr_misses::.switch_cpus.inst          325                       # number of ReadReq MSHR misses
system.cpu.icache.ReadReq_mshr_misses::total          325                       # number of ReadReq MSHR misses
system.cpu.icache.ReadReq_mshr_miss_latency::.switch_cpus.inst      4208400                       # number of ReadReq MSHR miss cycles
system.cpu.icache.ReadReq_mshr_miss_latency::total      4208400                       # number of ReadReq MSHR miss cycles
system.cpu.icache.ReadReq_mshr_miss_rate::.switch_cpus.inst     0.001989                       # mshr miss rate for ReadReq accesses
system.cpu.icache.ReadReq_mshr_miss_rate::total     0.001989                       # mshr miss rate for ReadReq accesses
system.cpu.icache.ReadReq_avg_mshr_miss_latency::.switch_cpus.inst 12948.923077                       # average ReadReq mshr miss latency
system.cpu.icache.ReadReq_avg_mshr_miss_latency::total 12948.923077                       # average ReadReq mshr miss latency
system.cpu.icache.power_state.pwrStateResidencyTicks::UNDEFINED 570253725600                       # Cumulative time (in ticks) in various power states
system.cpu.icache.tags.tagsinuse             8.993054                       # Cycle average of tags in use
system.cpu.icache.tags.total_refs                 447                       # Total number of references to valid blocks.
system.cpu.icache.tags.sampled_refs               319                       # Sample count of references to valid blocks.
system.cpu.icache.tags.avg_refs              1.401254                       # Average number of references to valid blocks.
system.cpu.icache.tags.warmup_cycle      569785974400                       # Cycle when the warmup percentage was hit.
system.cpu.icache.tags.occ_blocks::.cpu.inst     2.999967                       # Average occupied blocks per requestor
system.cpu.icache.tags.occ_blocks::.switch_cpus.inst     5.993087                       # Average occupied blocks per requestor
system.cpu.icache.tags.occ_percent::.cpu.inst     0.011719                       # Average percentage of cache occupancy
system.cpu.icache.tags.occ_percent::.switch_cpus.inst     0.023410                       # Average percentage of cache occupancy
system.cpu.icache.tags.occ_percent::total     0.035129                       # Average percentage of cache occupancy
system.cpu.icache.tags.occ_task_id_blocks::1024            9                       # Occupied blocks per task id
system.cpu.icache.tags.age_task_id_blocks_1024::1            1                       # Occupied blocks per task id
system.cpu.icache.tags.age_task_id_blocks_1024::2            8                       # Occupied blocks per task id
system.cpu.icache.tags.occ_task_id_percent::1024     0.035156                       # Percentage of cache occupancy per task id
system.cpu.icache.tags.tag_accesses            163762                       # Number of tag accesses
system.cpu.icache.tags.data_accesses           163762                       # Number of data accesses
system.cpu.icache.tags.power_state.pwrStateResidencyTicks::UNDEFINED 570253725600                       # Cumulative time (in ticks) in various power states
system.cpu.itb.instHits                             0                       # ITB inst hits
system.cpu.itb.instMisses                           0                       # ITB inst misses
system.cpu.itb.readHits                             0                       # DTB read hits
system.cpu.itb.readMisses                           0                       # DTB read misses
system.cpu.itb.writeHits                            0                       # DTB write hits
system.cpu.itb.writeMisses                          0                       # DTB write misses
system.cpu.itb.inserts                              0                       # Number of times an entry is inserted into the TLB
system.cpu.itb.flushTlb                             2                       # Number of times complete TLB was flushed
system.cpu.itb.flushTlbMva                          0                       # Number of times TLB was flushed by MVA
system.cpu.itb.flushTlbMvaAsid                      0                       # Number of times TLB was flushed by MVA & ASID
system.cpu.itb.flushTlbAsid                         0                       # Number of times TLB was flushed by ASID
system.cpu.itb.flushedEntries                       0                       # Number of entries that have been flushed from TLB
system.cpu.itb.alignFaults                          0                       # Number of TLB faults due to alignment restrictions
system.cpu.itb.prefetchFaults                       0                       # Number of TLB faults due to prefetch
system.cpu.itb.domainFaults                         0                       # Number of TLB faults due to domain restrictions
system.cpu.itb.permsFaults                          0                       # Number of TLB faults due to permissions restrictions
system.cpu.itb.readAccesses                         0                       # DTB read accesses
system.cpu.itb.writeAccesses                        0                       # DTB write accesses
system.cpu.itb.instAccesses                         0                       # ITB inst accesses
system.cpu.itb.hits                                 0                       # Total TLB (inst and data) hits
system.cpu.itb.misses                               0                       # Total TLB (inst and data) misses
system.cpu.itb.accesses                             0                       # Total TLB (inst and data) accesses
system.cpu.itb.stage2_mmu.stage2_tlb.instHits            0                       # ITB inst hits
system.cpu.itb.stage2_mmu.stage2_tlb.instMisses            0                       # ITB inst misses
system.cpu.itb.stage2_mmu.stage2_tlb.readHits            0                       # DTB read hits
system.cpu.itb.stage2_mmu.stage2_tlb.readMisses            0                       # DTB read misses
system.cpu.itb.stage2_mmu.stage2_tlb.writeHits            0                       # DTB write hits
system.cpu.itb.stage2_mmu.stage2_tlb.writeMisses            0                       # DTB write misses
system.cpu.itb.stage2_mmu.stage2_tlb.inserts            0                       # Number of times an entry is inserted into the TLB
system.cpu.itb.stage2_mmu.stage2_tlb.flushTlb            0                       # Number of times complete TLB was flushed
system.cpu.itb.stage2_mmu.stage2_tlb.flushTlbMva            0                       # Number of times TLB was flushed by MVA
system.cpu.itb.stage2_mmu.stage2_tlb.flushTlbMvaAsid            0                       # Number of times TLB was flushed by MVA & ASID
system.cpu.itb.stage2_mmu.stage2_tlb.flushTlbAsid            0                       # Number of times TLB was flushed by ASID
system.cpu.itb.stage2_mmu.stage2_tlb.flushedEntries            0                       # Number of entries that have been flushed from TLB
system.cpu.itb.stage2_mmu.stage2_tlb.alignFaults            0                       # Number of TLB faults due to alignment restrictions
system.cpu.itb.stage2_mmu.stage2_tlb.prefetchFaults            0                       # Number of TLB faults due to prefetch
system.cpu.itb.stage2_mmu.stage2_tlb.domainFaults            0                       # Number of TLB faults due to domain restrictions
system.cpu.itb.stage2_mmu.stage2_tlb.permsFaults            0                       # Number of TLB faults due to permissions restrictions
system.cpu.itb.stage2_mmu.stage2_tlb.readAccesses            0                       # DTB read accesses
system.cpu.itb.stage2_mmu.stage2_tlb.writeAccesses            0                       # DTB write accesses
system.cpu.itb.stage2_mmu.stage2_tlb.instAccesses            0                       # ITB inst accesses
system.cpu.itb.stage2_mmu.stage2_tlb.hits            0                       # Total TLB (inst and data) hits
system.cpu.itb.stage2_mmu.stage2_tlb.misses            0                       # Total TLB (inst and data) misses
system.cpu.itb.stage2_mmu.stage2_tlb.accesses            0                       # Total TLB (inst and data) accesses
system.cpu.itb.stage2_mmu.stage2_tlb.walker.walks            0                       # Table walker walks requested
system.cpu.itb.stage2_mmu.stage2_tlb.walker.requestOrigin_Requested::Data            0                       # Table walker requests started/completed, data/inst
system.cpu.itb.stage2_mmu.stage2_tlb.walker.requestOrigin_Requested::Inst            0                       # Table walker requests started/completed, data/inst
system.cpu.itb.stage2_mmu.stage2_tlb.walker.requestOrigin_Requested::total            0                       # Table walker requests started/completed, data/inst
system.cpu.itb.stage2_mmu.stage2_tlb.walker.requestOrigin_Completed::Data            0                       # Table walker requests started/completed, data/inst
system.cpu.itb.stage2_mmu.stage2_tlb.walker.requestOrigin_Completed::Inst            0                       # Table walker requests started/completed, data/inst
system.cpu.itb.stage2_mmu.stage2_tlb.walker.requestOrigin_Completed::total            0                       # Table walker requests started/completed, data/inst
system.cpu.itb.stage2_mmu.stage2_tlb.walker.requestOrigin::total            0                       # Table walker requests started/completed, data/inst
system.cpu.itb.stage2_mmu.stage2_tlb.walker.power_state.pwrStateResidencyTicks::UNDEFINED 570253725600                       # Cumulative time (in ticks) in various power states
system.cpu.itb.walker.walks                         0                       # Table walker walks requested
system.cpu.itb.walker.requestOrigin_Requested::Data            0                       # Table walker requests started/completed, data/inst
system.cpu.itb.walker.requestOrigin_Requested::Inst            0                       # Table walker requests started/completed, data/inst
system.cpu.itb.walker.requestOrigin_Requested::total            0                       # Table walker requests started/completed, data/inst
system.cpu.itb.walker.requestOrigin_Completed::Data            0                       # Table walker requests started/completed, data/inst
system.cpu.itb.walker.requestOrigin_Completed::Inst            0                       # Table walker requests started/completed, data/inst
[...]
system.switch_cpus.fetch.predictedBranches       995444                       # Number of branches that fetch has predicted taken
system.switch_cpus.fetch.cycles               6940958                       # Number of cycles fetch has run and was not squashing or blocked
system.switch_cpus.fetch.squashCycles           31692                       # Number of cycles fetch has spent squashing
system.switch_cpus.fetch.miscStallCycles          850                       # Number of cycles fetch has spent waiting on interrupts,or bad addresses, or out of MSHRs
system.switch_cpus.fetch.pendingTrapStallCycles          169                       # Number of stall cycles due to pending traps
system.switch_cpus.fetch.icacheWaitRetryStallCycles          413                       # Number of stall cycles due to full MSHR
system.switch_cpus.fetch.cacheLines           1240337                       # Number of cache lines fetched
system.switch_cpus.fetch.icacheSquashes           394                       # Number of outstanding Icache misses that were squashed
system.switch_cpus.fetch.nisnDist::samples      6980090                       # Number of instructions fetched each cycle (Total)
system.switch_cpus.fetch.nisnDist::mean      1.730965                       # Number of instructions fetched each cycle (Total)
system.switch_cpus.fetch.nisnDist::stdev     2.755285                       # Number of instructions fetched each cycle (Total)
system.switch_cpus.fetch.nisnDist::underflows            0      0.00%      0.00% # Number of instructions fetched each cycle (Total)
system.switch_cpus.fetch.nisnDist::0          4521723     64.78%     64.78% # Number of instructions fetched each cycle (Total)
system.switch_cpus.fetch.nisnDist::1           287530      4.12%     68.90% # Number of instructions fetched each cycle (Total)
system.switch_cpus.fetch.nisnDist::2           183870      2.63%     71.53% # Number of instructions fetched each cycle (Total)
system.switch_cpus.fetch.nisnDist::3           308365      4.42%     75.95% # Number of instructions fetched each cycle (Total)
system.switch_cpus.fetch.nisnDist::4           440212      6.31%     82.26% # Number of instructions fetched each cycle (Total)
system.switch_cpus.fetch.nisnDist::5           110006      1.58%     83.83% # Number of instructions fetched each cycle (Total)
system.switch_cpus.fetch.nisnDist::6           318014      4.56%     88.39% # Number of instructions fetched each cycle (Total)
system.switch_cpus.fetch.nisnDist::7           199999      2.87%     91.26% # Number of instructions fetched each cycle (Total)
system.switch_cpus.fetch.nisnDist::8           610371      8.74%    100.00% # Number of instructions fetched each cycle (Total)
system.switch_cpus.fetch.nisnDist::overflows            0      0.00%    100.00% # Number of instructions fetched each cycle (Total)
system.switch_cpus.fetch.nisnDist::min_value            0                       # Number of instructions fetched each cycle (Total)
system.switch_cpus.fetch.nisnDist::max_value            8                       # Number of instructions fetched each cycle (Total)
system.switch_cpus.fetch.nisnDist::total      6980090                       # Number of instructions fetched each cycle (Total)
system.switch_cpus.fetch.branchRate          0.245611                       # Number of branch fetches per cycle
system.switch_cpus.fetch.rate                1.728186                       # Number of inst fetches per cycle
system.switch_cpus.itb.instHits                     0                       # ITB inst hits
system.switch_cpus.itb.instMisses                   0                       # ITB inst misses
system.switch_cpus.itb.readHits                     0                       # DTB read hits
system.switch_cpus.itb.readMisses                   0                       # DTB read misses
system.switch_cpus.itb.writeHits                    0                       # DTB write hits
system.switch_cpus.itb.writeMisses                  0                       # DTB write misses
system.switch_cpus.itb.inserts                      0                       # Number of times an entry is inserted into the TLB
system.switch_cpus.itb.flushTlb                     0                       # Number of times complete TLB was flushed
system.switch_cpus.itb.flushTlbMva                  0                       # Number of times TLB was flushed by MVA
system.switch_cpus.itb.flushTlbMvaAsid              0                       # Number of times TLB was flushed by MVA & ASID
system.switch_cpus.itb.flushTlbAsid                 0                       # Number of times TLB was flushed by ASID
system.switch_cpus.itb.flushedEntries               0                       # Number of entries that have been flushed from TLB
system.switch_cpus.itb.alignFaults                  0                       # Number of TLB faults due to alignment restrictions
system.switch_cpus.itb.prefetchFaults               0                       # Number of TLB faults due to prefetch
system.switch_cpus.itb.domainFaults                 0                       # Number of TLB faults due to domain restrictions
system.switch_cpus.itb.permsFaults                  0                       # Number of TLB faults due to permissions restrictions
system.switch_cpus.itb.readAccesses                 0                       # DTB read accesses
system.switch_cpus.itb.writeAccesses                0                       # DTB write accesses
system.switch_cpus.itb.instAccesses                 0                       # ITB inst accesses
system.switch_cpus.itb.hits                         0                       # Total TLB (inst and data) hits
system.switch_cpus.itb.misses                       0                       # Total TLB (inst and data) misses
system.switch_cpus.itb.accesses                     0                       # Total TLB (inst and data) accesses
system.switch_cpus.itb.stage2_mmu.stage2_tlb.instHits            0                       # ITB inst hits
system.switch_cpus.itb.stage2_mmu.stage2_tlb.instMisses            0                       # ITB inst misses
system.switch_cpus.itb.stage2_mmu.stage2_tlb.readHits            0                       # DTB read hits
system.switch_cpus.itb.stage2_mmu.stage2_tlb.readMisses            0                       # DTB read misses
system.switch_cpus.itb.stage2_mmu.stage2_tlb.writeHits            0                       # DTB write hits
system.switch_cpus.itb.stage2_mmu.stage2_tlb.writeMisses            0                       # DTB write misses
system.switch_cpus.itb.stage2_mmu.stage2_tlb.inserts            0                       # Number of times an entry is inserted into the TLB
system.switch_cpus.itb.stage2_mmu.stage2_tlb.flushTlb            0                       # Number of times complete TLB was flushed
system.switch_cpus.itb.stage2_mmu.stage2_tlb.flushTlbMva            0                       # Number of times TLB was flushed by MVA
system.switch_cpus.itb.stage2_mmu.stage2_tlb.flushTlbMvaAsid            0                       # Number of times TLB was flushed by MVA & ASID
system.switch_cpus.itb.stage2_mmu.stage2_tlb.flushTlbAsid            0                       # Number of times TLB was flushed by ASID
system.switch_cpus.itb.stage2_mmu.stage2_tlb.flushedEntries            0                       # Number of entries that have been flushed from TLB
system.switch_cpus.itb.stage2_mmu.stage2_tlb.alignFaults            0                       # Number of TLB faults due to alignment restrictions
system.switch_cpus.itb.stage2_mmu.stage2_tlb.prefetchFaults            0                       # Number of TLB faults due to prefetch
system.switch_cpus.itb.stage2_mmu.stage2_tlb.domainFaults            0                       # Number of TLB faults due to domain restrictions
system.switch_cpus.itb.stage2_mmu.stage2_tlb.permsFaults            0                       # Number of TLB faults due to permissions restrictions
system.switch_cpus.itb.stage2_mmu.stage2_tlb.readAccesses            0                       # DTB read accesses
system.switch_cpus.itb.stage2_mmu.stage2_tlb.writeAccesses            0                       # DTB write accesses
system.switch_cpus.itb.stage2_mmu.stage2_tlb.instAccesses            0                       # ITB inst accesses
system.switch_cpus.itb.stage2_mmu.stage2_tlb.hits            0                       # Total TLB (inst and data) hits
system.switch_cpus.itb.stage2_mmu.stage2_tlb.misses            0                       # Total TLB (inst and data) misses
system.switch_cpus.itb.stage2_mmu.stage2_tlb.accesses            0                       # Total TLB (inst and data) accesses
system.switch_cpus.itb.stage2_mmu.stage2_tlb.walker.walks            0                       # Table walker walks requested
system.switch_cpus.itb.stage2_mmu.stage2_tlb.walker.requestOrigin_Requested::Data            0                       # Table walker requests started/completed, data/inst
system.switch_cpus.itb.stage2_mmu.stage2_tlb.walker.requestOrigin_Requested::Inst            0                       # Table walker requests started/completed, data/inst
system.switch_cpus.itb.stage2_mmu.stage2_tlb.walker.requestOrigin_Requested::total            0                       # Table walker requests started/completed, data/inst
system.switch_cpus.itb.stage2_mmu.stage2_tlb.walker.requestOrigin_Completed::Data            0                       # Table walker requests started/completed, data/inst
system.switch_cpus.itb.stage2_mmu.stage2_tlb.walker.requestOrigin_Completed::Inst            0                       # Table walker requests started/completed, data/inst
system.switch_cpus.itb.stage2_mmu.stage2_tlb.walker.requestOrigin_Completed::total            0                       # Table walker requests started/completed, data/inst
system.switch_cpus.itb.stage2_mmu.stage2_tlb.walker.requestOrigin::total            0                       # Table walker requests started/completed, data/inst
system.switch_cpus.itb.stage2_mmu.stage2_tlb.walker.power_state.pwrStateResidencyTicks::UNDEFINED   2795509600                       # Cumulative time (in ticks) in various power states
system.switch_cpus.itb.walker.walks                 0                       # Table walker walks requested
system.switch_cpus.itb.walker.requestOrigin_Requested::Data            0                       # Table walker requests started/completed, data/inst
system.switch_cpus.itb.walker.requestOrigin_Requested::Inst            0                       # Table walker requests started/completed, data/inst
system.switch_cpus.itb.walker.requestOrigin_Requested::total            0                       # Table walker requests started/completed, data/inst
system.switch_cpus.itb.walker.requestOrigin_Completed::Data            0                       # Table walker requests started/completed, data/inst
system.switch_cpus.itb.walker.requestOrigin_Completed::Inst            0                       # Table walker requests started/completed, data/inst
system.switch_cpus.itb.walker.requestOrigin_Completed::total            0                       # Table walker requests started/completed, data/inst
system.switch_cpus.itb.walker.requestOrigin::total            0                       # Table walker requests started/completed, data/inst
system.switch_cpus.itb.walker.power_state.pwrStateResidencyTicks::UNDEFINED   2795509600                       # Cumulative time (in ticks) in various power states
system.switch_cpus.lsq0.forwLoads             1641887                       # Number of loads that had data forwarded from stores
system.switch_cpus.lsq0.squashedLoads          519657                       # Number of loads squashed
system.switch_cpus.lsq0.ignoredResponses           61                       # Number of memory responses ignored because the instruction is squashed
system.switch_cpus.lsq0.memOrderViolation          528                       # Number of memory ordering violations
system.switch_cpus.lsq0.squashedStores          99491                       # Number of stores squashed
system.switch_cpus.lsq0.rescheduledLoads            2                       # Number of loads that were rescheduled
system.switch_cpus.lsq0.blockedByCache           2478                       # Number of times an access to memory failed due to the cache being blocked
system.switch_cpus.power_state.pwrStateResidencyTicks::OFF   2795509600                       # Cumulative time (in ticks) in various power states
system.switch_cpus.rename.squashCycles          15788                       # Number of cycles rename is squashing
system.switch_cpus.rename.idleCycles           919945                       # Number of cycles rename is idle
system.switch_cpus.rename.blockCycles         3393382                       # Number of cycles rename is blocking
system.switch_cpus.rename.serializeStallCycles         3160                       # count of cycles rename stalledfor serializing inst
system.switch_cpus.rename.runCycles           1071964                       # Number of cycles rename is running
system.switch_cpus.rename.unblockCycles       1575851                       # Number of cycles rename is unblocking
system.switch_cpus.rename.renamedInsts       11254431                       # Number of instructions processed by rename
system.switch_cpus.rename.squashedInsts         32534                       # Number of squashed instructions processed by rename
system.switch_cpus.rename.ROBFullEvents          1865                       # Number of times rename has blocked due to ROB full
system.switch_cpus.rename.IQFullEvents         659436                       # Number of times rename has blocked due to IQ full
system.switch_cpus.rename.SQFullEvents           1280                       # Number of times rename has blocked due to SQ full
system.switch_cpus.rename.fullRegistersEvents       922097                       # Number of times there has been no free registers
system.switch_cpus.rename.renamedOperands     13708941                       # Number of destination operands rename has renamed
system.switch_cpus.rename.lookups            16630279                       # Number of register rename lookups that rename has made
system.switch_cpus.rename.intLookups         11866667                       # Number of integer rename lookups
system.switch_cpus.rename.vecLookups               35                       # Number of vector rename lookups
system.switch_cpus.rename.committedMaps      12266146                       # Number of HB maps that are committed
system.switch_cpus.rename.undoneMaps          1442677                       # Number of HB maps that are undone due to squashing
system.switch_cpus.rename.serializing             106                       # count of serializing insts renamed
system.switch_cpus.rename.tempSerializing            6                       # count of temporary serializing insts renamed
system.switch_cpus.rename.skidInsts           4189231                       # count of insts added to the skid buffer
system.switch_cpus.rob.reads                 15731168                       # The number of ROB reads
system.switch_cpus.rob.writes                22683227                       # The number of ROB writes
system.switch_cpus.thread_0.numInsts         10000002                       # Number of Instructions committed
system.switch_cpus.thread_0.numOps           10000168                       # Number of Ops committed
system.switch_cpus.thread_0.numMemRefs              0                       # Number of Memory References
system.tol2bus.trans_dist::ReadResp            231332                       # Transaction distribution
system.tol2bus.trans_dist::WritebackDirty        43980                       # Transaction distribution
system.tol2bus.trans_dist::WritebackClean       196670                       # Transaction distribution
system.tol2bus.trans_dist::CleanEvict           18117                       # Transaction distribution
system.tol2bus.trans_dist::HardPFReq             9036                       # Transaction distribution
system.tol2bus.trans_dist::ReadExReq             7493                       # Transaction distribution
system.tol2bus.trans_dist::ReadExResp            7493                       # Transaction distribution
system.tol2bus.trans_dist::ReadCleanReq           481                       # Transaction distribution
system.tol2bus.trans_dist::ReadSharedReq       230851                       # Transaction distribution
system.tol2bus.pkt_count_system.cpu.icache.mem_side_port::system.l2.cpu_side_port         1367                       # Packet count per connected requestor and responder (bytes)
system.tol2bus.pkt_count_system.cpu.dcache.mem_side_port::system.l2.cpu_side_port       715032                       # Packet count per connected requestor and responder (bytes)
system.tol2bus.pkt_count::total                716399                       # Packet count per connected requestor and responder (bytes)
system.tol2bus.pkt_size_system.cpu.icache.mem_side_port::system.l2.cpu_side_port       113408                       # Cumulative packet size per connected requestor and responder (bytes)
system.tol2bus.pkt_size_system.cpu.dcache.mem_side_port::system.l2.cpu_side_port     61016064                       # Cumulative packet size per connected requestor and responder (bytes)
system.tol2bus.pkt_size::total               61129472                       # Cumulative packet size per connected requestor and responder (bytes)
system.tol2bus.snoops                           29054                       # Total snoops (count)
system.tol2bus.snoopTraffic                    243328                       # Total snoop traffic (bytes)
system.tol2bus.snoop_fanout::samples           267879                       # Request fanout histogram
system.tol2bus.snoop_fanout::mean            0.001210                       # Request fanout histogram
system.tol2bus.snoop_fanout::stdev           0.034757                       # Request fanout histogram
system.tol2bus.snoop_fanout::underflows             0      0.00%      0.00% # Request fanout histogram
system.tol2bus.snoop_fanout::0                 267555     99.88%     99.88% # Request fanout histogram
system.tol2bus.snoop_fanout::1                    324      0.12%    100.00% # Request fanout histogram
system.tol2bus.snoop_fanout::2                      0      0.00%    100.00% # Request fanout histogram
system.tol2bus.snoop_fanout::3                      0      0.00%    100.00% # Request fanout histogram
system.tol2bus.snoop_fanout::4                      0      0.00%    100.00% # Request fanout histogram
system.tol2bus.snoop_fanout::overflows              0      0.00%    100.00% # Request fanout histogram
system.tol2bus.snoop_fanout::min_value              0                       # Request fanout histogram
system.tol2bus.snoop_fanout::max_value              1                       # Request fanout histogram
system.tol2bus.snoop_fanout::total             267879                       # Request fanout histogram
system.tol2bus.power_state.pwrStateResidencyTicks::UNDEFINED   2795509600                       # Cumulative time (in ticks) in various power states
system.tol2bus.reqLayer0.occupancy          573028000                       # Layer occupancy (ticks)
system.tol2bus.reqLayer0.utilization             20.5                       # Layer utilization (%)
system.tol2bus.respLayer0.occupancy            962000                       # Layer occupancy (ticks)
system.tol2bus.respLayer0.utilization             0.0                       # Layer utilization (%)
system.tol2bus.respLayer1.occupancy         476688798                       # Layer occupancy (ticks)
system.tol2bus.respLayer1.utilization            17.1                       # Layer utilization (%)
system.voltage_domain.voltage                       1                       # Voltage in Volts

---------- End Simulation Statistics   ----------
