
---------- Begin Simulation Statistics ----------
final_tick                               9882015168800                       # Number of ticks from beginning of simulation (restored from checkpoints and never reset)
host_inst_rate                                 255856                       # Simulator instruction rate (inst/s)
host_mem_usage                               17069920                       # Number of bytes of host memory used
host_op_rate                                   261488                       # Simulator op (including micro ops) rate (op/s)
host_seconds                                     3.91                       # Real time elapsed on the host
host_tick_rate                              145824323                       # Simulator tick rate (ticks/s)
sim_freq                                 1000000000000                       # Frequency of simulated ticks
sim_insts                                     1000027                       # Number of instructions simulated
sim_ops                                       1022051                       # Number of ops (including micro ops) simulated
sim_seconds                                  0.000570                       # Number of seconds simulated
sim_ticks                                   569970000                       # Number of ticks simulated
system.cpu.Branches                                 7                       # Number of branches fetched
system.cpu.committedInsts                          25                       # Number of instructions committed
system.cpu.committedOps                            25                       # Number of ops (including micro ops) committed
system.cpu.idle_fraction                            0                       # Percentage of idle cycles
system.cpu.not_idle_fraction                        1                       # Percentage of non-idle cycles
system.cpu.numCycles                               25                       # number of cpu cycles simulated
system.cpu.numWorkItemsCompleted                    0                       # number of work items this cpu completed
system.cpu.numWorkItemsStarted                      0                       # number of work items this cpu started
system.cpu.num_busy_cycles                         25                       # Number of busy cycles
system.cpu.num_cc_register_reads                   15                       # number of times the CC registers were read
system.cpu.num_cc_register_writes                  12                       # number of times the CC registers were written
system.cpu.num_conditional_control_insts            4                       # number of instructions that are conditional controls
system.cpu.num_fp_alu_accesses                      0                       # Number of float alu accesses
system.cpu.num_fp_insts                             0                       # number of float instructions
system.cpu.num_fp_register_reads                    0                       # number of times the floating registers were read
system.cpu.num_fp_register_writes                   0                       # number of times the floating registers were written
system.cpu.num_func_calls                           2                       # number of times a function call or return occured
system.cpu.num_idle_cycles                          0                       # Number of idle cycles
system.cpu.num_int_alu_accesses                    20                       # Number of integer alu accesses
system.cpu.num_int_insts                           20                       # number of integer instructions
system.cpu.num_int_register_reads                  25                       # number of times the integer registers were read
system.cpu.num_int_register_writes                 18                       # number of times the integer registers were written
system.cpu.num_load_insts                           8                       # Number of load instructions
system.cpu.num_mem_refs                             9                       # number of memory refs
system.cpu.num_store_insts                          1                       # Number of store instructions
system.cpu.num_vec_alu_accesses                     0                       # Number of vector alu accesses
system.cpu.num_vec_insts                            0                       # number of vector instructions
system.cpu.num_vec_register_reads                   0                       # number of times the vector registers were read
system.cpu.num_vec_register_writes                  0                       # number of times the vector registers were written
system.cpu.op_class::No_OpClass                     0      0.00%      0.00% # Class of executed instruction
system.cpu.op_class::IntAlu                        16     64.00%     64.00% # Class of executed instruction
system.cpu.op_class::IntMult                        0      0.00%     64.00% # Class of executed instruction
system.cpu.op_class::IntDiv                         0      0.00%     64.00% # Class of executed instruction
system.cpu.op_class::FloatAdd                       0      0.00%     64.00% # Class of executed instruction
system.cpu.op_class::FloatCmp                       0      0.00%     64.00% # Class of executed instruction
system.cpu.op_class::FloatCvt                       0      0.00%     64.00% # Class of executed instruction
system.cpu.op_class::FloatMult                      0      0.00%     64.00% # Class of executed instruction
system.cpu.op_class::FloatMultAcc                   0      0.00%     64.00% # Class of executed instruction
system.cpu.op_class::FloatDiv                       0      0.00%     64.00% # Class of executed instruction
system.cpu.op_class::FloatMisc                      0      0.00%     64.00% # Class of executed instruction
system.cpu.op_class::FloatSqrt                      0      0.00%     64.00% # Class of executed instruction
system.cpu.op_class::SimdAdd                        0      0.00%     64.00% # Class of executed instruction
system.cpu.op_class::SimdAddAcc                     0      0.00%     64.00% # Class of executed instruction
system.cpu.op_class::SimdAlu                        0      0.00%     64.00% # Class of executed instruction
system.cpu.op_class::SimdCmp                        0      0.00%     64.00% # Class of executed instruction
system.cpu.op_class::SimdCvt                        0      0.00%     64.00% # Class of executed instruction
system.cpu.op_class::SimdMisc                       0      0.00%     64.00% # Class of executed instruction
system.cpu.op_class::SimdMult                       0      0.00%     64.00% # Class of executed instruction
system.cpu.op_class::SimdMultAcc                    0      0.00%     64.00% # Class of executed instruction
system.cpu.op_class::SimdShift                      0      0.00%     64.00% # Class of executed instruction
system.cpu.op_class::SimdShiftAcc                   0      0.00%     64.00% # Class of executed instruction
system.cpu.op_class::SimdDiv                        0      0.00%     64.00% # Class of executed instruction
system.cpu.op_class::SimdSqrt                       0      0.00%     64.00% # Class of executed instruction
system.cpu.op_class::SimdFloatAdd                   0      0.00%     64.00% # Class of executed instruction
system.cpu.op_class::SimdFloatAlu                   0      0.00%     64.00% # Class of executed instruction
system.cpu.op_class::SimdFloatCmp                   0      0.00%     64.00% # Class of executed instruction
system.cpu.op_class::SimdFloatCvt                   0      0.00%     64.00% # Class of executed instruction
system.cpu.op_class::SimdFloatDiv                   0      0.00%     64.00% # Class of executed instruction
system.cpu.op_class::SimdFloatMisc                  0      0.00%     64.00% # Class of executed instruction
system.cpu.op_class::SimdFloatMult                  0      0.00%     64.00% # Class of executed instruction
system.cpu.op_class::SimdFloatMultAcc               0      0.00%     64.00% # Class of executed instruction
system.cpu.op_class::SimdFloatSqrt                  0      0.00%     64.00% # Class of executed instruction
system.cpu.op_class::SimdReduceAdd                  0      0.00%     64.00% # Class of executed instruction
system.cpu.op_class::SimdReduceAlu                  0      0.00%     64.00% # Class of executed instruction
system.cpu.op_class::SimdReduceCmp                  0      0.00%     64.00% # Class of executed instruction
system.cpu.op_class::SimdFloatReduceAdd             0      0.00%     64.00% # Class of executed instruction
system.cpu.op_class::SimdFloatReduceCmp             0      0.00%     64.00% # Class of executed instruction
system.cpu.op_class::SimdAes                        0      0.00%     64.00% # Class of executed instruction
system.cpu.op_class::SimdAesMix                     0      0.00%     64.00% # Class of executed instruction
system.cpu.op_class::SimdSha1Hash                   0      0.00%     64.00% # Class of executed instruction
system.cpu.op_class::SimdSha1Hash2                  0      0.00%     64.00% # Class of executed instruction
system.cpu.op_class::SimdSha256Hash                 0      0.00%     64.00% # Class of executed instruction
system.cpu.op_class::SimdSha256Hash2                0      0.00%     64.00% # Class of executed instruction
system.cpu.op_class::SimdShaSigma2                  0      0.00%     64.00% # Class of executed instruction
system.cpu.op_class::SimdShaSigma3                  0      0.00%     64.00% # Class of executed instruction
system.cpu.op_class::SimdPredAlu                    0      0.00%     64.00% # Class of executed instruction
system.cpu.op_class::MemRead                        8     32.00%     96.00% # Class of executed instruction
system.cpu.op_class::MemWrite                       1      4.00%    100.00% # Class of executed instruction
system.cpu.op_class::FloatMemRead                   0      0.00%    100.00% # Class of executed instruction
system.cpu.op_class::FloatMemWrite                  0      0.00%    100.00% # Class of executed instruction
system.cpu.op_class::IprAccess                      0      0.00%    100.00% # Class of executed instruction
system.cpu.op_class::InstPrefetch                   0      0.00%    100.00% # Class of executed instruction
system.cpu.op_class::total                         25                       # Class of executed instruction
system.cpu.workload.numSyscalls                     0                       # Number of system calls
system.membus.snoop_filter.hit_multi_requests            0                       # Number of requests hitting in the snoop filter with multiple (>1) holders of the requested data.
system.membus.snoop_filter.hit_multi_snoops            0                       # Number of snoops hitting in the snoop filter with multiple (>1) holders of the requested data.
system.membus.snoop_filter.hit_single_requests        15783                       # Number of requests hitting in the snoop filter with a single holder of the requested data.
system.membus.snoop_filter.hit_single_snoops            0                       # Number of snoops hitting in the snoop filter with a single holder of the requested data.
system.membus.snoop_filter.tot_requests         39874                       # Total number of requests made to the snoop filter.
system.membus.snoop_filter.tot_snoops               0                       # Total number of snoops made to the snoop filter.
system.switch_cpus.cc_regfile_reads            697446                       # number of cc regfile reads
system.switch_cpus.cc_regfile_writes           577074                       # number of cc regfile writes
system.switch_cpus.committedInsts             1000002                       # Number of Instructions Simulated
system.switch_cpus.committedOps               1022026                       # Number of Ops (including micro ops) Simulated
system.switch_cpus.cpi                       1.424897                       # CPI: Cycles Per Instruction
system.switch_cpus.cpi_total                 1.424897                       # CPI: Total CPI of All Threads
system.switch_cpus.idleCycles                    2398                       # Total number of cycles that the CPU has spent unscheduled due to idling
system.switch_cpus.iew.branchMispredicts         3905                       # Number of branch mispredicts detected at execute
system.switch_cpus.iew.exec_branches           246833                       # Number of branches executed
system.switch_cpus.iew.exec_nop                   326                       # number of nop insts executed
system.switch_cpus.iew.exec_rate             0.872181                       # Inst execution rate
system.switch_cpus.iew.exec_refs               541805                       # number of memory reference insts executed
system.switch_cpus.iew.exec_stores              61166                       # Number of stores executed
system.switch_cpus.iew.exec_swp                     0                       # number of swp insts executed
system.switch_cpus.iew.iewBlockCycles          148484                       # Number of cycles IEW is blocking
system.switch_cpus.iew.iewDispLoadInsts        441070                       # Number of dispatched load instructions
system.switch_cpus.iew.iewDispNonSpecInsts            0                       # Number of dispatched non-speculative instructions
system.switch_cpus.iew.iewDispSquashedInsts            0                       # Number of squashed instructions skipped by dispatch
system.switch_cpus.iew.iewDispStoreInsts        76696                       # Number of dispatched store instructions
system.switch_cpus.iew.iewDispatchedInsts      1301088                       # Number of instructions dispatched to IQ
system.switch_cpus.iew.iewExecLoadInsts        480639                       # Number of load instructions executed
system.switch_cpus.iew.iewExecSquashedInsts         6197                       # Number of squashed instructions skipped in execute
system.switch_cpus.iew.iewExecutedInsts       1242771                       # Number of executed instructions
system.switch_cpus.iew.iewIQFullEvents            488                       # Number of times the IQ has become full, causing a stall
system.switch_cpus.iew.iewIdleCycles                0                       # Number of cycles IEW is idle
system.switch_cpus.iew.iewLSQFullEvents           287                       # Number of times the LSQ has become full, causing a stall
system.switch_cpus.iew.iewSquashCycles           3610                       # Number of cycles IEW is squashing
system.switch_cpus.iew.iewUnblockCycles          1256                       # Number of cycles IEW is unblocking
system.switch_cpus.iew.memOrderViolationEvents           28                       # Number of memory order violations
system.switch_cpus.iew.predictedNotTakenIncorrect         2740                       # Number of branches that were predicted not taken incorrectly
system.switch_cpus.iew.predictedTakenIncorrect         1165                       # Number of branches that were predicted taken incorrectly
system.switch_cpus.iew.wb_consumers           1537911                       # num instructions consuming a value
system.switch_cpus.iew.wb_count               1150483                       # cumulative count of insts written-back
system.switch_cpus.iew.wb_fanout             0.523492                       # average fanout of values written-back
system.switch_cpus.iew.wb_producers            805084                       # num instructions producing a value
system.switch_cpus.iew.wb_rate               0.807413                       # insts written-back per cycle
system.switch_cpus.iew.wb_sent                1152229                       # cumulative count of insts sent to commit
system.switch_cpus.int_regfile_reads          1386590                       # number of integer regfile reads
system.switch_cpus.int_regfile_writes          871179                       # number of integer regfile writes
system.switch_cpus.ipc                       0.701805                       # IPC: Instructions Per Cycle
system.switch_cpus.ipc_total                 0.701805                       # IPC: Total IPC of All Threads
system.switch_cpus.iq.FU_type_0::No_OpClass           25      0.00%      0.00% # Type of FU issued
system.switch_cpus.iq.FU_type_0::IntAlu        701531     56.17%     56.17% # Type of FU issued
system.switch_cpus.iq.FU_type_0::IntMult           35      0.00%     56.17% # Type of FU issued
system.switch_cpus.iq.FU_type_0::IntDiv            28      0.00%     56.18% # Type of FU issued
system.switch_cpus.iq.FU_type_0::FloatAdd            0      0.00%     56.18% # Type of FU issued
system.switch_cpus.iq.FU_type_0::FloatCmp            0      0.00%     56.18% # Type of FU issued
system.switch_cpus.iq.FU_type_0::FloatCvt            0      0.00%     56.18% # Type of FU issued
system.switch_cpus.iq.FU_type_0::FloatMult            0      0.00%     56.18% # Type of FU issued
system.switch_cpus.iq.FU_type_0::FloatMultAcc            0      0.00%     56.18% # Type of FU issued
system.switch_cpus.iq.FU_type_0::FloatDiv            0      0.00%     56.18% # Type of FU issued
system.switch_cpus.iq.FU_type_0::FloatMisc            0      0.00%     56.18% # Type of FU issued
system.switch_cpus.iq.FU_type_0::FloatSqrt            0      0.00%     56.18% # Type of FU issued
system.switch_cpus.iq.FU_type_0::SimdAdd            0      0.00%     56.18% # Type of FU issued
system.switch_cpus.iq.FU_type_0::SimdAddAcc            0      0.00%     56.18% # Type of FU issued
system.switch_cpus.iq.FU_type_0::SimdAlu            0      0.00%     56.18% # Type of FU issued
system.switch_cpus.iq.FU_type_0::SimdCmp            0      0.00%     56.18% # Type of FU issued
system.switch_cpus.iq.FU_type_0::SimdCvt            0      0.00%     56.18% # Type of FU issued
system.switch_cpus.iq.FU_type_0::SimdMisc            0      0.00%     56.18% # Type of FU issued
system.switch_cpus.iq.FU_type_0::SimdMult            0      0.00%     56.18% # Type of FU issued
system.switch_cpus.iq.FU_type_0::SimdMultAcc            0      0.00%     56.18% # Type of FU issued
system.switch_cpus.iq.FU_type_0::SimdShift            0      0.00%     56.18% # Type of FU issued
system.switch_cpus.iq.FU_type_0::SimdShiftAcc            0      0.00%     56.18% # Type of FU issued
system.switch_cpus.iq.FU_type_0::SimdDiv            0      0.00%     56.18% # Type of FU issued
system.switch_cpus.iq.FU_type_0::SimdSqrt            0      0.00%     56.18% # Type of FU issued
system.switch_cpus.iq.FU_type_0::SimdFloatAdd            0      0.00%     56.18% # Type of FU issued
system.switch_cpus.iq.FU_type_0::SimdFloatAlu            0      0.00%     56.18% # Type of FU issued
system.switch_cpus.iq.FU_type_0::SimdFloatCmp            0      0.00%     56.18% # Type of FU issued
system.switch_cpus.iq.FU_type_0::SimdFloatCvt            0      0.00%     56.18% # Type of FU issued
system.switch_cpus.iq.FU_type_0::SimdFloatDiv            0      0.00%     56.18% # Type of FU issued
system.switch_cpus.iq.FU_type_0::SimdFloatMisc            0      0.00%     56.18% # Type of FU issued
system.switch_cpus.iq.FU_type_0::SimdFloatMult            0      0.00%     56.18% # Type of FU issued
system.switch_cpus.iq.FU_type_0::SimdFloatMultAcc            0      0.00%     56.18% # Type of FU issued
system.switch_cpus.iq.FU_type_0::SimdFloatSqrt            0      0.00%     56.18% # Type of FU issued
system.switch_cpus.iq.FU_type_0::SimdReduceAdd            0      0.00%     56.18% # Type of FU issued
system.switch_cpus.iq.FU_type_0::SimdReduceAlu            0      0.00%     56.18% # Type of FU issued
system.switch_cpus.iq.FU_type_0::SimdReduceCmp            0      0.00%     56.18% # Type of FU issued
system.switch_cpus.iq.FU_type_0::SimdFloatReduceAdd            0      0.00%     56.18% # Type of FU issued
system.switch_cpus.iq.FU_type_0::SimdFloatReduceCmp            0      0.00%     56.18% # Type of FU issued
system.switch_cpus.iq.FU_type_0::SimdAes            0      0.00%     56.18% # Type of FU issued
system.switch_cpus.iq.FU_type_0::SimdAesMix            0      0.00%     56.18% # Type of FU issued
system.switch_cpus.iq.FU_type_0::SimdSha1Hash            0      0.00%     56.18% # Type of FU issued
system.switch_cpus.iq.FU_type_0::SimdSha1Hash2            0      0.00%     56.18% # Type of FU issued
system.switch_cpus.iq.FU_type_0::SimdSha256Hash            0      0.00%     56.18% # Type of FU issued
system.switch_cpus.iq.FU_type_0::SimdSha256Hash2            0      0.00%     56.18% # Type of FU issued
system.switch_cpus.iq.FU_type_0::SimdShaSigma2            0      0.00%     56.18% # Type of FU issued
system.switch_cpus.iq.FU_type_0::SimdShaSigma3            0      0.00%     56.18% # Type of FU issued
system.switch_cpus.iq.FU_type_0::SimdPredAlu            0      0.00%     56.18% # Type of FU issued
system.switch_cpus.iq.FU_type_0::MemRead       484752     38.81%     94.99% # Type of FU issued
system.switch_cpus.iq.FU_type_0::MemWrite        62598      5.01%    100.00% # Type of FU issued
system.switch_cpus.iq.FU_type_0::FloatMemRead            0      0.00%    100.00% # Type of FU issued
system.switch_cpus.iq.FU_type_0::FloatMemWrite            0      0.00%    100.00% # Type of FU issued
system.switch_cpus.iq.FU_type_0::IprAccess            0      0.00%    100.00% # Type of FU issued
system.switch_cpus.iq.FU_type_0::InstPrefetch            0      0.00%    100.00% # Type of FU issued
system.switch_cpus.iq.FU_type_0::total        1248969                       # Type of FU issued
system.switch_cpus.iq.fp_alu_accesses               0                       # Number of floating point alu accesses
system.switch_cpus.iq.fp_inst_queue_reads            0                       # Number of floating instruction queue reads
system.switch_cpus.iq.fp_inst_queue_wakeup_accesses            0                       # Number of floating instruction queue wakeup accesses
system.switch_cpus.iq.fp_inst_queue_writes            0                       # Number of floating instruction queue writes
system.switch_cpus.iq.fu_busy_cnt              511111                       # FU busy when requested
system.switch_cpus.iq.fu_busy_rate           0.409226                       # FU busy rate (busy events/executed inst)
system.switch_cpus.iq.fu_full::No_OpClass            0      0.00%      0.00% # attempts to use FU when none available
system.switch_cpus.iq.fu_full::IntAlu          145767     28.52%     28.52% # attempts to use FU when none available
system.switch_cpus.iq.fu_full::IntMult              6      0.00%     28.52% # attempts to use FU when none available
system.switch_cpus.iq.fu_full::IntDiv               0      0.00%     28.52% # attempts to use FU when none available
system.switch_cpus.iq.fu_full::FloatAdd             0      0.00%     28.52% # attempts to use FU when none available
system.switch_cpus.iq.fu_full::FloatCmp             0      0.00%     28.52% # attempts to use FU when none available
system.switch_cpus.iq.fu_full::FloatCvt             0      0.00%     28.52% # attempts to use FU when none available
system.switch_cpus.iq.fu_full::FloatMult            0      0.00%     28.52% # attempts to use FU when none available
system.switch_cpus.iq.fu_full::FloatMultAcc            0      0.00%     28.52% # attempts to use FU when none available
system.switch_cpus.iq.fu_full::FloatDiv             0      0.00%     28.52% # attempts to use FU when none available
system.switch_cpus.iq.fu_full::FloatMisc            0      0.00%     28.52% # attempts to use FU when none available
system.switch_cpus.iq.fu_full::FloatSqrt            0      0.00%     28.52% # attempts to use FU when none available
system.switch_cpus.iq.fu_full::SimdAdd              0      0.00%     28.52% # attempts to use FU when none available
system.switch_cpus.iq.fu_full::SimdAddAcc            0      0.00%     28.52% # attempts to use FU when none available
system.switch_cpus.iq.fu_full::SimdAlu              0      0.00%     28.52% # attempts to use FU when none available
system.switch_cpus.iq.fu_full::SimdCmp              0      0.00%     28.52% # attempts to use FU when none available
system.switch_cpus.iq.fu_full::SimdCvt              0      0.00%     28.52% # attempts to use FU when none available
system.switch_cpus.iq.fu_full::SimdMisc             0      0.00%     28.52% # attempts to use FU when none available
system.switch_cpus.iq.fu_full::SimdMult             0      0.00%     28.52% # attempts to use FU when none available
system.switch_cpus.iq.fu_full::SimdMultAcc            0      0.00%     28.52% # attempts to use FU when none available
system.switch_cpus.iq.fu_full::SimdShift            0      0.00%     28.52% # attempts to use FU when none available
system.switch_cpus.iq.fu_full::SimdShiftAcc            0      0.00%     28.52% # attempts to use FU when none available
system.switch_cpus.iq.fu_full::SimdDiv              0      0.00%     28.52% # attempts to use FU when none available
system.switch_cpus.iq.fu_full::SimdSqrt             0      0.00%     28.52% # attempts to use FU when none available
system.switch_cpus.iq.fu_full::SimdFloatAdd            0      0.00%     28.52% # attempts to use FU when none available
system.switch_cpus.iq.fu_full::SimdFloatAlu            0      0.00%     28.52% # attempts to use FU when none available
system.switch_cpus.iq.fu_full::SimdFloatCmp            0      0.00%     28.52% # attempts to use FU when none available
system.switch_cpus.iq.fu_full::SimdFloatCvt            0      0.00%     28.52% # attempts to use FU when none available
system.switch_cpus.iq.fu_full::SimdFloatDiv            0      0.00%     28.52% # attempts to use FU when none available
system.switch_cpus.iq.fu_full::SimdFloatMisc            0      0.00%     28.52% # attempts to use FU when none available
system.switch_cpus.iq.fu_full::SimdFloatMult            0      0.00%     28.52% # attempts to use FU when none available
system.switch_cpus.iq.fu_full::SimdFloatMultAcc            0      0.00%     28.52% # attempts to use FU when none available
system.switch_cpus.iq.fu_full::SimdFloatSqrt            0      0.00%     28.52% # attempts to use FU when none available
system.switch_cpus.iq.fu_full::SimdReduceAdd            0      0.00%     28.52% # attempts to use FU when none available
system.switch_cpus.iq.fu_full::SimdReduceAlu            0      0.00%     28.52% # attempts to use FU when none available
system.switch_cpus.iq.fu_full::SimdReduceCmp            0      0.00%     28.52% # attempts to use FU when none available
system.switch_cpus.iq.fu_full::SimdFloatReduceAdd            0      0.00%     28.52% # attempts to use FU when none available
system.switch_cpus.iq.fu_full::SimdFloatReduceCmp            0      0.00%     28.52% # attempts to use FU when none available
system.switch_cpus.iq.fu_full::SimdAes              0      0.00%     28.52% # attempts to use FU when none available
system.switch_cpus.iq.fu_full::SimdAesMix            0      0.00%     28.52% # attempts to use FU when none available
system.switch_cpus.iq.fu_full::SimdSha1Hash            0      0.00%     28.52% # attempts to use FU when none available
system.switch_cpus.iq.fu_full::SimdSha1Hash2            0      0.00%     28.52% # attempts to use FU when none available
system.switch_cpus.iq.fu_full::SimdSha256Hash            0      0.00%     28.52% # attempts to use FU when none available
system.switch_cpus.iq.fu_full::SimdSha256Hash2            0      0.00%     28.52% # attempts to use FU when none available
system.switch_cpus.iq.fu_full::SimdShaSigma2            0      0.00%     28.52% # attempts to use FU when none available
system.switch_cpus.iq.fu_full::SimdShaSigma3            0      0.00%     28.52% # attempts to use FU when none available
system.switch_cpus.iq.fu_full::SimdPredAlu            0      0.00%     28.52% # attempts to use FU when none available
system.switch_cpus.iq.fu_full::MemRead         360861     70.60%     99.12% # attempts to use FU when none available
system.switch_cpus.iq.fu_full::MemWrite          4477      0.88%    100.00% # attempts to use FU when none available
system.switch_cpus.iq.fu_full::FloatMemRead            0      0.00%    100.00% # attempts to use FU when none available
system.switch_cpus.iq.fu_full::FloatMemWrite            0      0.00%    100.00% # attempts to use FU when none available
system.switch_cpus.iq.fu_full::IprAccess            0      0.00%    100.00% # attempts to use FU when none available
system.switch_cpus.iq.fu_full::InstPrefetch            0      0.00%    100.00% # attempts to use FU when none available
system.switch_cpus.iq.int_alu_accesses        1760055                       # Number of integer alu accesses
system.switch_cpus.iq.int_inst_queue_reads      4447415                       # Number of integer instruction queue reads
system.switch_cpus.iq.int_inst_queue_wakeup_accesses      1150483                       # Number of integer instruction queue wakeup accesses
system.switch_cpus.iq.int_inst_queue_writes      1579389                       # Number of integer instruction queue writes
system.switch_cpus.iq.iqInstsAdded            1300762                       # Number of instructions added to the IQ (excludes non-spec)
system.switch_cpus.iq.iqInstsIssued           1248969                       # Number of instructions issued
system.switch_cpus.iq.iqSquashedInstsExamined       278601                       # Number of squashed instructions iterated over during squash; mainly for profiling
system.switch_cpus.iq.iqSquashedInstsIssued        15865                       # Number of squashed instructions issued
system.switch_cpus.iq.iqSquashedOperandsExamined       275304                       # Number of squashed operands that are examined and possibly removed from graph
system.switch_cpus.iq.issued_per_cycle::samples      1422502                       # Number of insts issued each cycle
system.switch_cpus.iq.issued_per_cycle::mean     0.878009                       # Number of insts issued each cycle
system.switch_cpus.iq.issued_per_cycle::stdev     1.146603                       # Number of insts issued each cycle
system.switch_cpus.iq.issued_per_cycle::underflows            0      0.00%      0.00% # Number of insts issued each cycle
system.switch_cpus.iq.issued_per_cycle::0       788052     55.40%     55.40% # Number of insts issued each cycle
system.switch_cpus.iq.issued_per_cycle::1       242303     17.03%     72.43% # Number of insts issued each cycle
system.switch_cpus.iq.issued_per_cycle::2       191775     13.48%     85.91% # Number of insts issued each cycle
system.switch_cpus.iq.issued_per_cycle::3       178380     12.54%     98.45% # Number of insts issued each cycle
system.switch_cpus.iq.issued_per_cycle::4        21984      1.55%    100.00% # Number of insts issued each cycle
system.switch_cpus.iq.issued_per_cycle::5            8      0.00%    100.00% # Number of insts issued each cycle
system.switch_cpus.iq.issued_per_cycle::6            0      0.00%    100.00% # Number of insts issued each cycle
system.switch_cpus.iq.issued_per_cycle::7            0      0.00%    100.00% # Number of insts issued each cycle
system.switch_cpus.iq.issued_per_cycle::8            0      0.00%    100.00% # Number of insts issued each cycle
system.switch_cpus.iq.issued_per_cycle::overflows            0      0.00%    100.00% # Number of insts issued each cycle
system.switch_cpus.iq.issued_per_cycle::min_value            0                       # Number of insts issued each cycle
system.switch_cpus.iq.issued_per_cycle::max_value            5                       # Number of insts issued each cycle
system.switch_cpus.iq.issued_per_cycle::total      1422502                       # Number of insts issued each cycle
system.switch_cpus.iq.rate                   0.876531                       # Inst issue rate
system.switch_cpus.iq.vec_alu_accesses              0                       # Number of vector alu accesses
system.switch_cpus.iq.vec_inst_queue_reads            0                       # Number of vector instruction queue reads
system.switch_cpus.iq.vec_inst_queue_wakeup_accesses            0                       # Number of vector instruction queue wakeup accesses
system.switch_cpus.iq.vec_inst_queue_writes            0                       # Number of vector instruction queue writes
system.switch_cpus.memDep0.conflictingLoads        53725                       # Number of conflicting loads.
system.switch_cpus.memDep0.conflictingStores        10595                       # Number of conflicting stores.
system.switch_cpus.memDep0.insertedLoads       441070                       # Number of loads inserted to the mem dependence unit.
system.switch_cpus.memDep0.insertedStores        76696                       # Number of stores inserted to the mem dependence unit.
system.switch_cpus.misc_regfile_reads         2412135                       # number of misc regfile reads
system.switch_cpus.misc_regfile_writes              1                       # number of misc regfile writes
system.switch_cpus.numCycles                  1424900                       # number of cpu cycles simulated
system.switch_cpus.numWorkItemsCompleted            0                       # number of work items this cpu completed
system.switch_cpus.numWorkItemsStarted              0                       # number of work items this cpu started
system.switch_cpus.timesIdled                      34                       # Number of times that the entire CPU went into an idle state and unscheduled itself
system.switch_cpus.vec_regfile_writes              44                       # number of vector regfile writes
system.tol2bus.snoop_filter.hit_multi_requests            0                       # Number of requests hitting in the snoop filter with multiple (>1) holders of the requested data.
system.tol2bus.snoop_filter.hit_multi_snoops            0                       # Number of snoops hitting in the snoop filter with multiple (>1) holders of the requested data.
system.tol2bus.snoop_filter.hit_single_requests        69037                       # Number of requests hitting in the snoop filter with a single holder of the requested data.
system.tol2bus.snoop_filter.hit_single_snoops          179                       # Number of snoops hitting in the snoop filter with a single holder of the requested data.
system.tol2bus.snoop_filter.tot_requests       138367                       # Total number of requests made to the snoop filter.
system.tol2bus.snoop_filter.tot_snoops            179                       # Total number of snoops made to the snoop filter.
system.clk_domain.clock                          1000                       # Clock period in ticks
system.cpu.dcache.demand_hits::.cpu.data            2                       # number of demand (read+write) hits
system.cpu.dcache.demand_hits::.switch_cpus.data       244467                       # number of demand (read+write) hits
system.cpu.dcache.demand_hits::total           244469                       # number of demand (read+write) hits
system.cpu.dcache.overall_hits::.cpu.data            2                       # number of overall hits
system.cpu.dcache.overall_hits::.switch_cpus.data       244467                       # number of overall hits
system.cpu.dcache.overall_hits::total          244469                       # number of overall hits
system.cpu.dcache.demand_misses::.cpu.data            7                       # number of demand (read+write) misses
system.cpu.dcache.demand_misses::.switch_cpus.data       151608                       # number of demand (read+write) misses
system.cpu.dcache.demand_misses::total         151615                       # number of demand (read+write) misses
system.cpu.dcache.overall_misses::.cpu.data            7                       # number of overall misses
system.cpu.dcache.overall_misses::.switch_cpus.data       151608                       # number of overall misses
system.cpu.dcache.overall_misses::total        151615                       # number of overall misses
system.cpu.dcache.demand_miss_latency::.switch_cpus.data   4044164342                       # number of demand (read+write) miss cycles
system.cpu.dcache.demand_miss_latency::total   4044164342                       # number of demand (read+write) miss cycles
system.cpu.dcache.overall_miss_latency::.switch_cpus.data   4044164342                       # number of overall miss cycles
system.cpu.dcache.overall_miss_latency::total   4044164342                       # number of overall miss cycles
system.cpu.dcache.demand_accesses::.cpu.data            9                       # number of demand (read+write) accesses
system.cpu.dcache.demand_accesses::.switch_cpus.data       396075                       # number of demand (read+write) accesses
system.cpu.dcache.demand_accesses::total       396084                       # number of demand (read+write) accesses
system.cpu.dcache.overall_accesses::.cpu.data            9                       # number of overall (read+write) accesses
system.cpu.dcache.overall_accesses::.switch_cpus.data       396075                       # number of overall (read+write) accesses
system.cpu.dcache.overall_accesses::total       396084                       # number of overall (read+write) accesses
system.cpu.dcache.demand_miss_rate::.cpu.data     0.777778                       # miss rate for demand accesses
system.cpu.dcache.demand_miss_rate::.switch_cpus.data     0.382776                       # miss rate for demand accesses
system.cpu.dcache.demand_miss_rate::total     0.382785                       # miss rate for demand accesses
system.cpu.dcache.overall_miss_rate::.cpu.data     0.777778                       # miss rate for overall accesses
system.cpu.dcache.overall_miss_rate::.switch_cpus.data     0.382776                       # miss rate for overall accesses
system.cpu.dcache.overall_miss_rate::total     0.382785                       # miss rate for overall accesses
system.cpu.dcache.demand_avg_miss_latency::.switch_cpus.data 26675.138133                       # average overall miss latency
system.cpu.dcache.demand_avg_miss_latency::total 26673.906553                       # average overall miss latency
system.cpu.dcache.overall_avg_miss_latency::.switch_cpus.data 26675.138133                       # average overall miss latency
system.cpu.dcache.overall_avg_miss_latency::total 26673.906553                       # average overall miss latency
system.cpu.dcache.blocked_cycles::no_mshrs       274470                       # number of cycles access was blocked
system.cpu.dcache.blocked_cycles::no_targets        30834                       # number of cycles access was blocked
system.cpu.dcache.blocked::no_mshrs             17856                       # number of cycles access was blocked
system.cpu.dcache.blocked::no_targets             404                       # number of cycles access was blocked
system.cpu.dcache.avg_blocked_cycles::no_mshrs    15.371304                       # average number of cycles each access was blocked
system.cpu.dcache.avg_blocked_cycles::no_targets    76.321782                       # average number of cycles each access was blocked
system.cpu.dcache.writebacks::.writebacks        69037                       # number of writebacks
system.cpu.dcache.writebacks::total             69037                       # number of writebacks
system.cpu.dcache.demand_mshr_hits::.switch_cpus.data        82322                       # number of demand (read+write) MSHR hits
system.cpu.dcache.demand_mshr_hits::total        82322                       # number of demand (read+write) MSHR hits
system.cpu.dcache.overall_mshr_hits::.switch_cpus.data        82322                       # number of overall MSHR hits
system.cpu.dcache.overall_mshr_hits::total        82322                       # number of overall MSHR hits
system.cpu.dcache.demand_mshr_misses::.switch_cpus.data        69286                       # number of demand (read+write) MSHR misses
system.cpu.dcache.demand_mshr_misses::total        69286                       # number of demand (read+write) MSHR misses
system.cpu.dcache.overall_mshr_misses::.switch_cpus.data        69286                       # number of overall MSHR misses
system.cpu.dcache.overall_mshr_misses::total        69286                       # number of overall MSHR misses
system.cpu.dcache.demand_mshr_miss_latency::.switch_cpus.data   1927842756                       # number of demand (read+write) MSHR miss cycles
system.cpu.dcache.demand_mshr_miss_latency::total   1927842756                       # number of demand (read+write) MSHR miss cycles
system.cpu.dcache.overall_mshr_miss_latency::.switch_cpus.data   1927842756                       # number of overall MSHR miss cycles
system.cpu.dcache.overall_mshr_miss_latency::total   1927842756                       # number of overall MSHR miss cycles
system.cpu.dcache.demand_mshr_miss_rate::.switch_cpus.data     0.174932                       # mshr miss rate for demand accesses
system.cpu.dcache.demand_mshr_miss_rate::total     0.174928                       # mshr miss rate for demand accesses
system.cpu.dcache.overall_mshr_miss_rate::.switch_cpus.data     0.174932                       # mshr miss rate for overall accesses
system.cpu.dcache.overall_mshr_miss_rate::total     0.174928                       # mshr miss rate for overall accesses
system.cpu.dcache.demand_avg_mshr_miss_latency::.switch_cpus.data 27824.419883                       # average overall mshr miss latency
system.cpu.dcache.demand_avg_mshr_miss_latency::total 27824.419883                       # average overall mshr miss latency
system.cpu.dcache.overall_avg_mshr_miss_latency::.switch_cpus.data 27824.419883                       # average overall mshr miss latency
system.cpu.dcache.overall_avg_mshr_miss_latency::total 27824.419883                       # average overall mshr miss latency
system.cpu.dcache.replacements                  69037                       # number of replacements
system.cpu.dcache.ReadReq_hits::.cpu.data            2                       # number of ReadReq hits
system.cpu.dcache.ReadReq_hits::.switch_cpus.data       210749                       # number of ReadReq hits
system.cpu.dcache.ReadReq_hits::total          210751                       # number of ReadReq hits
system.cpu.dcache.ReadReq_misses::.cpu.data            6                       # number of ReadReq misses
system.cpu.dcache.ReadReq_misses::.switch_cpus.data       133607                       # number of ReadReq misses
system.cpu.dcache.ReadReq_misses::total        133613                       # number of ReadReq misses
system.cpu.dcache.ReadReq_miss_latency::.switch_cpus.data   3758574800                       # number of ReadReq miss cycles
system.cpu.dcache.ReadReq_miss_latency::total   3758574800                       # number of ReadReq miss cycles
system.cpu.dcache.ReadReq_accesses::.cpu.data            8                       # number of ReadReq accesses(hits+misses)
system.cpu.dcache.ReadReq_accesses::.switch_cpus.data       344356                       # number of ReadReq accesses(hits+misses)
system.cpu.dcache.ReadReq_accesses::total       344364                       # number of ReadReq accesses(hits+misses)
system.cpu.dcache.ReadReq_miss_rate::.cpu.data     0.750000                       # miss rate for ReadReq accesses
system.cpu.dcache.ReadReq_miss_rate::.switch_cpus.data     0.387991                       # miss rate for ReadReq accesses
system.cpu.dcache.ReadReq_miss_rate::total     0.387999                       # miss rate for ReadReq accesses
system.cpu.dcache.ReadReq_avg_miss_latency::.switch_cpus.data 28131.570951                       # average ReadReq miss latency
system.cpu.dcache.ReadReq_avg_miss_latency::total 28130.307680                       # average ReadReq miss latency
system.cpu.dcache.ReadReq_mshr_hits::.switch_cpus.data        70032                       # number of ReadReq MSHR hits
system.cpu.dcache.ReadReq_mshr_hits::total        70032                       # number of ReadReq MSHR hits
system.cpu.dcache.ReadReq_mshr_misses::.switch_cpus.data        63575                       # number of ReadReq MSHR misses
system.cpu.dcache.ReadReq_mshr_misses::total        63575                       # number of ReadReq MSHR misses
system.cpu.dcache.ReadReq_mshr_miss_latency::.switch_cpus.data   1843068800                       # number of ReadReq MSHR miss cycles
system.cpu.dcache.ReadReq_mshr_miss_latency::total   1843068800                       # number of ReadReq MSHR miss cycles
system.cpu.dcache.ReadReq_mshr_miss_rate::.switch_cpus.data     0.184620                       # mshr miss rate for ReadReq accesses
system.cpu.dcache.ReadReq_mshr_miss_rate::total     0.184616                       # mshr miss rate for ReadReq accesses
system.cpu.dcache.ReadReq_avg_mshr_miss_latency::.switch_cpus.data 28990.464805                       # average ReadReq mshr miss latency
system.cpu.dcache.ReadReq_avg_mshr_miss_latency::total 28990.464805                       # average ReadReq mshr miss latency
system.cpu.dcache.WriteReq_hits::.switch_cpus.data        33718                       # number of WriteReq hits
system.cpu.dcache.WriteReq_hits::total          33718                       # number of WriteReq hits
system.cpu.dcache.WriteReq_misses::.cpu.data            1                       # number of WriteReq misses
system.cpu.dcache.WriteReq_misses::.switch_cpus.data        18001                       # number of WriteReq misses
system.cpu.dcache.WriteReq_misses::total        18002                       # number of WriteReq misses
system.cpu.dcache.WriteReq_miss_latency::.switch_cpus.data    285589542                       # number of WriteReq miss cycles
system.cpu.dcache.WriteReq_miss_latency::total    285589542                       # number of WriteReq miss cycles
system.cpu.dcache.WriteReq_accesses::.cpu.data            1                       # number of WriteReq accesses(hits+misses)
system.cpu.dcache.WriteReq_accesses::.switch_cpus.data        51719                       # number of WriteReq accesses(hits+misses)
system.cpu.dcache.WriteReq_accesses::total        51720                       # number of WriteReq accesses(hits+misses)
system.cpu.dcache.WriteReq_miss_rate::.cpu.data            1                       # miss rate for WriteReq accesses
system.cpu.dcache.WriteReq_miss_rate::.switch_cpus.data     0.348054                       # miss rate for WriteReq accesses
system.cpu.dcache.WriteReq_miss_rate::total     0.348067                       # miss rate for WriteReq accesses
system.cpu.dcache.WriteReq_avg_miss_latency::.switch_cpus.data 15865.204266                       # average WriteReq miss latency
system.cpu.dcache.WriteReq_avg_miss_latency::total 15864.322964                       # average WriteReq miss latency
system.cpu.dcache.WriteReq_mshr_hits::.switch_cpus.data        12290                       # number of WriteReq MSHR hits
system.cpu.dcache.WriteReq_mshr_hits::total        12290                       # number of WriteReq MSHR hits
system.cpu.dcache.WriteReq_mshr_misses::.switch_cpus.data         5711                       # number of WriteReq MSHR misses
system.cpu.dcache.WriteReq_mshr_misses::total         5711                       # number of WriteReq MSHR misses
system.cpu.dcache.WriteReq_mshr_miss_latency::.switch_cpus.data     84773956                       # number of WriteReq MSHR miss cycles
system.cpu.dcache.WriteReq_mshr_miss_latency::total     84773956                       # number of WriteReq MSHR miss cycles
system.cpu.dcache.WriteReq_mshr_miss_rate::.switch_cpus.data     0.110424                       # mshr miss rate for WriteReq accesses
system.cpu.dcache.WriteReq_mshr_miss_rate::total     0.110422                       # mshr miss rate for WriteReq accesses
system.cpu.dcache.WriteReq_avg_mshr_miss_latency::.switch_cpus.data 14843.977587                       # average WriteReq mshr miss latency
system.cpu.dcache.WriteReq_avg_mshr_miss_latency::total 14843.977587                       # average WriteReq mshr miss latency
system.cpu.dcache.power_state.pwrStateResidencyTicks::UNDEFINED 9882015168800                       # Cumulative time (in ticks) in various power states
system.cpu.dcache.tags.tagsinuse           254.714148                       # Cycle average of tags in use
system.cpu.dcache.tags.total_refs              309288                       # Total number of references to valid blocks.
system.cpu.dcache.tags.sampled_refs             69037                       # Sample count of references to valid blocks.
system.cpu.dcache.tags.avg_refs              4.480032                       # Average number of references to valid blocks.
system.cpu.dcache.tags.warmup_cycle      9881445201600                       # Cycle when the warmup percentage was hit.
system.cpu.dcache.tags.occ_blocks::.cpu.data     0.216441                       # Average occupied blocks per requestor
system.cpu.dcache.tags.occ_blocks::.switch_cpus.data   254.497707                       # Average occupied blocks per requestor
system.cpu.dcache.tags.occ_percent::.cpu.data     0.000845                       # Average percentage of cache occupancy
system.cpu.dcache.tags.occ_percent::.switch_cpus.data     0.994132                       # Average percentage of cache occupancy
system.cpu.dcache.tags.occ_percent::total     0.994977                       # Average percentage of cache occupancy
system.cpu.dcache.tags.occ_task_id_blocks::1024          256                       # Occupied blocks per task id
system.cpu.dcache.tags.age_task_id_blocks_1024::0          254                       # Occupied blocks per task id
system.cpu.dcache.tags.age_task_id_blocks_1024::1            2                       # Occupied blocks per task id
system.cpu.dcache.tags.occ_task_id_percent::1024            1                       # Percentage of cache occupancy per task id
system.cpu.dcache.tags.tag_accesses           3237965                       # Number of tag accesses
system.cpu.dcache.tags.data_accesses          3237965                       # Number of data accesses
system.cpu.dcache.tags.power_state.pwrStateResidencyTicks::UNDEFINED 9882015168800                       # Cumulative time (in ticks) in various power states
system.cpu.dtb.instHits                             0                       # ITB inst hits
system.cpu.dtb.instMisses                           0                       # ITB inst misses
system.cpu.dtb.readHits                             0                       # DTB read hits
system.cpu.dtb.readMisses                           0                       # DTB read misses
system.cpu.dtb.writeHits                            0                       # DTB write hits
system.cpu.dtb.writeMisses                          0                       # DTB write misses
system.cpu.dtb.inserts                              0                       # Number of times an entry is inserted into the TLB
system.cpu.dtb.flushTlb                             2                       # Number of times complete TLB was flushed
system.cpu.dtb.flushTlbMva                          0                       # Number of times TLB was flushed by MVA
system.cpu.dtb.flushTlbMvaAsid                      0                       # Number of times TLB was flushed by MVA & ASID
system.cpu.dtb.flushTlbAsid                         0                       # Number of times TLB was flushed by ASID
system.cpu.dtb.flushedEntries                       0                       # Number of entries that have been flushed from TLB
system.cpu.dtb.alignFaults                          0                       # Number of TLB faults due to alignment restrictions
system.cpu.dtb.prefetchFaults                       0                       # Number of TLB faults due to prefetch
system.cpu.dtb.domainFaults                         0                       # Number of TLB faults due to domain restrictions
system.cpu.dtb.permsFaults                          0                       # Number of TLB faults due to permissions restrictions
system.cpu.dtb.readAccesses                         0                       # DTB read accesses
system.cpu.dtb.writeAccesses                        0                       # DTB write accesses
system.cpu.dtb.instAccesses                         0                       # ITB inst accesses
system.cpu.dtb.hits                                 0                       # Total TLB (inst and data) hits
system.cpu.dtb.misses                               0                       # Total TLB (inst and data) misses
system.cpu.dtb.accesses                             0                       # Total TLB (inst and data) accesses
system.cpu.dtb.stage2_mmu.stage2_tlb.instHits            0                       # ITB inst hits
system.cpu.dtb.stage2_mmu.stage2_tlb.instMisses            0                       # ITB inst misses
system.cpu.dtb.stage2_mmu.stage2_tlb.readHits            0                       # DTB read hits
system.cpu.dtb.stage2_mmu.stage2_tlb.readMisses            0                       # DTB read misses
system.cpu.dtb.stage2_mmu.stage2_tlb.writeHits            0                       # DTB write hits
system.cpu.dtb.stage2_mmu.stage2_tlb.writeMisses            0                       # DTB write misses
system.cpu.dtb.stage2_mmu.stage2_tlb.inserts            0                       # Number of times an entry is inserted into the TLB
system.cpu.dtb.stage2_mmu.stage2_tlb.flushTlb            0                       # Number of times complete TLB was flushed
system.cpu.dtb.stage2_mmu.stage2_tlb.flushTlbMva            0                       # Number of times TLB was flushed by MVA
system.cpu.dtb.stage2_mmu.stage2_tlb.flushTlbMvaAsid            0                       # Number of times TLB was flushed by MVA & ASID
system.cpu.dtb.stage2_mmu.stage2_tlb.flushTlbAsid            0                       # Number of times TLB was flushed by ASID
system.cpu.dtb.stage2_mmu.stage2_tlb.flushedEntries            0                       # Number of entries that have been flushed from TLB
system.cpu.dtb.stage2_mmu.stage2_tlb.alignFaults            0                       # Number of TLB faults due to alignment restrictions
system.cpu.dtb.stage2_mmu.stage2_tlb.prefetchFaults            0                       # Number of TLB faults due to prefetch
system.cpu.dtb.stage2_mmu.stage2_tlb.domainFaults            0                       # Number of TLB faults due to domain restrictions
system.cpu.dtb.stage2_mmu.stage2_tlb.permsFaults            0                       # Number of TLB faults due to permissions restrictions
system.cpu.dtb.stage2_mmu.stage2_tlb.readAccesses            0                       # DTB read accesses
system.cpu.dtb.stage2_mmu.stage2_tlb.writeAccesses            0                       # DTB write accesses
system.cpu.dtb.stage2_mmu.stage2_tlb.instAccesses            0                       # ITB inst accesses
system.cpu.dtb.stage2_mmu.stage2_tlb.hits            0                       # Total TLB (inst and data) hits
system.cpu.dtb.stage2_mmu.stage2_tlb.misses            0                       # Total TLB (inst and data) misses
system.cpu.dtb.stage2_mmu.stage2_tlb.accesses            0                       # Total TLB (inst and data) accesses
system.cpu.dtb.stage2_mmu.stage2_tlb.walker.walks            0                       # Table walker walks requested
system.cpu.dtb.stage2_mmu.stage2_tlb.walker.requestOrigin_Requested::Data            0                       # Table walker requests started/completed, data/inst
system.cpu.dtb.stage2_mmu.stage2_tlb.walker.requestOrigin_Requested::Inst            0                       # Table walker requests started/completed, data/inst
system.cpu.dtb.stage2_mmu.stage2_tlb.walker.requestOrigin_Requested::total            0                       # Table walker requests started/completed, data/inst
system.cpu.dtb.stage2_mmu.stage2_tlb.walker.requestOrigin_Completed::Data            0                       # Table walker requests started/completed, data/inst
system.cpu.dtb.stage2_mmu.stage2_tlb.walker.requestOrigin_Completed::Inst            0                       # Table walker requests started/completed, data/inst
system.cpu.dtb.stage2_mmu.stage2_tlb.walker.requestOrigin_Completed::total            0                       # Table walker requests started/completed, data/inst
system.cpu.dtb.stage2_mmu.stage2_tlb.walker.requestOrigin::total            0                       # Table walker requests started/completed, data/inst
system.cpu.dtb.stage2_mmu.stage2_tlb.walker.power_state.pwrStateResidencyTicks::UNDEFINED 9882015168800                       # Cumulative time (in ticks) in various power states
system.cpu.dtb.walker.walks                         0                       # Table walker walks requested
system.cpu.dtb.walker.requestOrigin_Requested::Data            0                       # Table walker requests started/completed, data/inst
system.cpu.dtb.walker.requestOrigin_Requested::Inst            0                       # Table walker requests started/completed, data/inst
system.cpu.dtb.walker.requestOrigin_Requested::total            0                       # Table walker requests started/completed, data/inst
system.cpu.dtb.walker.requestOrigin_Completed::Data            0                       # Table walker requests started/completed, data/inst
system.cpu.dtb.walker.requestOrigin_Completed::Inst            0                       # Table walker requests started/completed, data/inst
system.cpu.dtb.walker.requestOrigin_Completed::total            0                       # Table walker requests started/completed, data/inst
system.cpu.dtb.walker.requestOrigin::total            0                       # Table walker requests started/completed, data/inst
system.cpu.dtb.walker.power_state.pwrStateResidencyTicks::UNDEFINED 9882015168800                       # Cumulative time (in ticks) in various power states
system.cpu.dtb_walker_cache.blocked_cycles::no_mshrs            0                       # number of cycles access was blocked
system.cpu.dtb_walker_cache.blocked_cycles::no_targets            0                       # number of cycles access was blocked
system.cpu.dtb_walker_cache.blocked::no_mshrs            0                       # number of cycles access was blocked
system.cpu.dtb_walker_cache.blocked::no_targets            0                       # number of cycles access was blocked
system.cpu.dtb_walker_cache.avg_blocked_cycles::no_mshrs          nan                       # average number of cycles each access was blocked
system.cpu.dtb_walker_cache.avg_blocked_cycles::no_targets          nan                       # average number of cycles each access was blocked
system.cpu.dtb_walker_cache.replacements            0                       # number of replacements
system.cpu.dtb_walker_cache.power_state.pwrStateResidencyTicks::UNDEFINED 9882015168800                       # Cumulative time (in ticks) in various power states
system.cpu.dtb_walker_cache.tags.tagsinuse            0                       # Cycle average of tags in use
system.cpu.dtb_walker_cache.tags.total_refs            0                       # Total number of references to valid blocks.
system.cpu.dtb_walker_cache.tags.sampled_refs            0                       # Sample count of references to valid blocks.
system.cpu.dtb_walker_cache.tags.avg_refs          nan                       # Average number of references to valid blocks.
system.cpu.dtb_walker_cache.tags.warmup_cycle            0                       # Cycle when the warmup percentage was hit.
system.cpu.dtb_walker_cache.tags.tag_accesses            0                       # Number of tag accesses
system.cpu.dtb_walker_cache.tags.data_accesses            0                       # Number of data accesses
system.cpu.dtb_walker_cache.tags.power_state.pwrStateResidencyTicks::UNDEFINED 9882015168800                       # Cumulative time (in ticks) in various power states
system.cpu.icache.demand_hits::.cpu.inst           21                       # number of demand (read+write) hits
system.cpu.icache.demand_hits::.switch_cpus.inst       199460                       # number of demand (read+write) hits
system.cpu.icache.demand_hits::total           199481                       # number of demand (read+write) hits
system.cpu.icache.overall_hits::.cpu.inst           21                       # number of overall hits
system.cpu.icache.overall_hits::.switch_cpus.inst       199460                       # number of overall hits
system.cpu.icache.overall_hits::total          199481                       # number of overall hits
system.cpu.icache.demand_misses::.cpu.inst            4                       # number of demand (read+write) misses
system.cpu.icache.demand_misses::.switch_cpus.inst           55                       # number of demand (read+write) misses
system.cpu.icache.demand_misses::total             59                       # number of demand (read+write) misses
system.cpu.icache.overall_misses::.cpu.inst            4                       # number of overall misses
system.cpu.icache.overall_misses::.switch_cpus.inst           55                       # number of overall misses
system.cpu.icache.overall_misses::total            59                       # number of overall misses
system.cpu.icache.demand_miss_latency::.switch_cpus.inst      3627600                       # number of demand (read+write) miss cycles
system.cpu.icache.demand_miss_latency::total      3627600                       # number of demand (read+write) miss cycles
system.cpu.icache.overall_miss_latency::.switch_cpus.inst      3627600                       # number of overall miss cycles
system.cpu.icache.overall_miss_latency::total      3627600                       # number of overall miss cycles
system.cpu.icache.demand_accesses::.cpu.inst           25                       # number of demand (read+write) accesses
system.cpu.icache.demand_accesses::.switch_cpus.inst       199515                       # number of demand (read+write) accesses
system.cpu.icache.demand_accesses::total       199540                       # number of demand (read+write) accesses
system.cpu.icache.overall_accesses::.cpu.inst           25                       # number of overall (read+write) accesses
system.cpu.icache.overall_accesses::.switch_cpus.inst       199515                       # number of overall (read+write) accesses
system.cpu.icache.overall_accesses::total       199540                       # number of overall (read+write) accesses
system.cpu.icache.demand_miss_rate::.cpu.inst     0.160000                       # miss rate for demand accesses
system.cpu.icache.demand_miss_rate::.switch_cpus.inst     0.000276                       # miss rate for demand accesses
system.cpu.icache.demand_miss_rate::total     0.000296                       # miss rate for demand accesses
system.cpu.icache.overall_miss_rate::.cpu.inst     0.160000                       # miss rate for overall accesses
system.cpu.icache.overall_miss_rate::.switch_cpus.inst     0.000276                       # miss rate for overall accesses
system.cpu.icache.overall_miss_rate::total     0.000296                       # miss rate for overall accesses
system.cpu.icache.demand_avg_miss_latency::.switch_cpus.inst 65956.363636                       # average overall miss latency
system.cpu.icache.demand_avg_miss_latency::total 61484.745763                       # average overall miss latency
system.cpu.icache.overall_avg_miss_latency::.switch_cpus.inst 65956.363636                       # average overall miss latency
system.cpu.icache.overall_avg_miss_latency::total 61484.745763                       # average overall miss latency
system.cpu.icache.blocked_cycles::no_mshrs          936                       # number of cycles access was blocked
system.cpu.icache.blocked_cycles::no_targets           54                       # number of cycles access was blocked
system.cpu.icache.blocked::no_mshrs                 9                       # number of cycles access was blocked
system.cpu.icache.blocked::no_targets               1                       # number of cycles access was blocked
system.cpu.icache.avg_blocked_cycles::no_mshrs          104                       # average number of cycles each access was blocked
system.cpu.icache.avg_blocked_cycles::no_targets           54                       # average number of cycles each access was blocked
system.cpu.icache.demand_mshr_hits::.switch_cpus.inst           22                       # number of demand (read+write) MSHR hits
system.cpu.icache.demand_mshr_hits::total           22                       # number of demand (read+write) MSHR hits
system.cpu.icache.overall_mshr_hits::.switch_cpus.inst           22                       # number of overall MSHR hits
system.cpu.icache.overall_mshr_hits::total           22                       # number of overall MSHR hits
system.cpu.icache.demand_mshr_misses::.switch_cpus.inst           33                       # number of demand (read+write) MSHR misses
system.cpu.icache.demand_mshr_misses::total           33                       # number of demand (read+write) MSHR misses
system.cpu.icache.overall_mshr_misses::.switch_cpus.inst           33                       # number of overall MSHR misses
system.cpu.icache.overall_mshr_misses::total           33                       # number of overall MSHR misses
system.cpu.icache.demand_mshr_miss_latency::.switch_cpus.inst      2440800                       # number of demand (read+write) MSHR miss cycles
system.cpu.icache.demand_mshr_miss_latency::total      2440800                       # number of demand (read+write) MSHR miss cycles
system.cpu.icache.overall_mshr_miss_latency::.switch_cpus.inst      2440800                       # number of overall MSHR miss cycles
system.cpu.icache.overall_mshr_miss_latency::total      2440800                       # number of overall MSHR miss cycles
system.cpu.icache.demand_mshr_miss_rate::.switch_cpus.inst     0.000165                       # mshr miss rate for demand accesses
system.cpu.icache.demand_mshr_miss_rate::total     0.000165                       # mshr miss rate for demand accesses
system.cpu.icache.overall_mshr_miss_rate::.switch_cpus.inst     0.000165                       # mshr miss rate for overall accesses
system.cpu.icache.overall_mshr_miss_rate::total     0.000165                       # mshr miss rate for overall accesses
system.cpu.icache.demand_avg_mshr_miss_latency::.switch_cpus.inst 73963.636364                       # average overall mshr miss latency
system.cpu.icache.demand_avg_mshr_miss_latency::total 73963.636364                       # average overall mshr miss latency
system.cpu.icache.overall_avg_mshr_miss_latency::.switch_cpus.inst 73963.636364                       # average overall mshr miss latency
system.cpu.icache.overall_avg_mshr_miss_latency::total 73963.636364                       # average overall mshr miss latency
system.cpu.icache.replacements                      0                       # number of replacements
system.cpu.icache.ReadReq_hits::.cpu.inst           21                       # number of ReadReq hits
system.cpu.icache.ReadReq_hits::.switch_cpus.inst       199460                       # number of ReadReq hits
system.cpu.icache.ReadReq_hits::total          199481                       # number of ReadReq hits
system.cpu.icache.ReadReq_misses::.cpu.inst            4                       # number of ReadReq misses
system.cpu.icache.ReadReq_misses::.switch_cpus.inst           55                       # number of ReadReq misses
system.cpu.icache.ReadReq_misses::total            59                       # number of ReadReq misses
system.cpu.icache.ReadReq_miss_latency::.switch_cpus.inst      3627600                       # number of ReadReq miss cycles
system.cpu.icache.ReadReq_miss_latency::total      3627600                       # number of ReadReq miss cycles
system.cpu.icache.ReadReq_accesses::.cpu.inst           25                       # number of ReadReq accesses(hits+misses)
system.cpu.icache.ReadReq_accesses::.switch_cpus.inst       199515                       # number of ReadReq accesses(hits+misses)
system.cpu.icache.ReadReq_accesses::total       199540                       # number of ReadReq accesses(hits+misses)
system.cpu.icache.ReadReq_miss_rate::.cpu.inst     0.160000                       # miss rate for ReadReq accesses
system.cpu.icache.ReadReq_miss_rate::.switch_cpus.inst     0.000276                       # miss rate for ReadReq accesses
system.cpu.icache.ReadReq_miss_rate::total     0.000296                       # miss rate for ReadReq accesses
system.cpu.icache.ReadReq_avg_miss_latency::.switch_cpus.inst 65956.363636                       # average ReadReq miss latency
system.cpu.icache.ReadReq_avg_miss_latency::total 61484.745763                       # average ReadReq miss latency
system.cpu.icache.ReadReq_mshr_hits::.switch_cpus.inst           22                       # number of ReadReq MSHR hits
system.cpu.icache.ReadReq_mshr_hits::total           22                       # number of ReadReq MSHR hits
system.cpu.icache.ReadReq_mshr_misses::.switch_cpus.inst           33                       # number of ReadReq MSHR misses
system.cpu.icache.ReadReq_mshr_misses::total           33                       # number of ReadReq MSHR misses
system.cpu.icache.ReadReq_mshr_miss_latency::.switch_cpus.inst      2440800                       # number of ReadReq MSHR miss cycles
system.cpu.icache.ReadReq_mshr_miss_latency::total      2440800                       # number of ReadReq MSHR miss cycles
system.cpu.icache.ReadReq_mshr_miss_rate::.switch_cpus.inst     0.000165                       # mshr miss rate for ReadReq accesses
system.cpu.icache.ReadReq_mshr_miss_rate::total     0.000165                       # mshr miss rate for ReadReq accesses
system.cpu.icache.ReadReq_avg_mshr_miss_latency::.switch_cpus.inst 73963.636364                       # average ReadReq mshr miss latency
system.cpu.icache.ReadReq_avg_mshr_miss_latency::total 73963.636364                       # average ReadReq mshr miss latency
system.cpu.icache.power_state.pwrStateResidencyTicks::UNDEFINED 9882015168800                       # Cumulative time (in ticks) in various power states
system.cpu.icache.tags.tagsinuse            34.003058                       # Cycle average of tags in use
system.cpu.icache.tags.total_refs                   0                       # Total number of references to valid blocks.
system.cpu.icache.tags.sampled_refs                 0                       # Sample count of references to valid blocks.
system.cpu.icache.tags.avg_refs                   nan                       # Average number of references to valid blocks.
system.cpu.icache.tags.warmup_cycle      9881445199200                       # Cycle when the warmup percentage was hit.
system.cpu.icache.tags.occ_blocks::.cpu.inst     3.999990                       # Average occupied blocks per requestor
system.cpu.icache.tags.occ_blocks::.switch_cpus.inst    30.003068                       # Average occupied blocks per requestor
system.cpu.icache.tags.occ_percent::.cpu.inst     0.007812                       # Average percentage of cache occupancy
system.cpu.icache.tags.occ_percent::.switch_cpus.inst     0.058600                       # Average percentage of cache occupancy
system.cpu.icache.tags.occ_percent::total     0.066412                       # Average percentage of cache occupancy
system.cpu.icache.tags.occ_task_id_blocks::1024           37                       # Occupied blocks per task id
system.cpu.icache.tags.age_task_id_blocks_1024::2           37                       # Occupied blocks per task id
system.cpu.icache.tags.occ_task_id_percent::1024     0.072266                       # Percentage of cache occupancy per task id
system.cpu.icache.tags.tag_accesses           1596357                       # Number of tag accesses
system.cpu.icache.tags.data_accesses          1596357                       # Number of data accesses
system.cpu.icache.tags.power_state.pwrStateResidencyTicks::UNDEFINED 9882015168800                       # Cumulative time (in ticks) in various power states
system.cpu.itb.instHits                             0                       # ITB inst hits
system.cpu.itb.instMisses                           0                       # ITB inst misses
system.cpu.itb.readHits                             0                       # DTB read hits
system.cpu.itb.readMisses                           0                       # DTB read misses
system.cpu.itb.writeHits                            0                       # DTB write hits
system.cpu.itb.writeMisses                          0                       # DTB write misses
system.cpu.itb.inserts                              0                       # Number of times an entry is inserted into the TLB
system.cpu.itb.flushTlb                             2                       # Number of times complete TLB was flushed
system.cpu.itb.flushTlbMva                          0                       # Number of times TLB was flushed by MVA
system.cpu.itb.flushTlbMvaAsid                      0                       # Number of times TLB was flushed by MVA & ASID
system.cpu.itb.flushTlbAsid                         0                       # Number of times TLB was flushed by ASID
system.cpu.itb.flushedEntries                       0                       # Number of entries that have been flushed from TLB
system.cpu.itb.alignFaults                          0                       # Number of TLB faults due to alignment restrictions
system.cpu.itb.prefetchFaults                       0                       # Number of TLB faults due to prefetch
system.cpu.itb.domainFaults                         0                       # Number of TLB faults due to domain restrictions
system.cpu.itb.permsFaults                          0                       # Number of TLB faults due to permissions restrictions
system.cpu.itb.readAccesses                         0                       # DTB read accesses
system.cpu.itb.writeAccesses                        0                       # DTB write accesses
system.cpu.itb.instAccesses                         0                       # ITB inst accesses
system.cpu.itb.hits                                 0                       # Total TLB (inst and data) hits
system.cpu.itb.misses                               0                       # Total TLB (inst and data) misses
system.cpu.itb.accesses                             0                       # Total TLB (inst and data) accesses
system.cpu.itb.stage2_mmu.stage2_tlb.instHits            0                       # ITB inst hits
system.cpu.itb.stage2_mmu.stage2_tlb.instMisses            0                       # ITB inst misses
system.cpu.itb.stage2_mmu.stage2_tlb.readHits            0                       # DTB read hits
system.cpu.itb.stage2_mmu.stage2_tlb.readMisses            0                       # DTB read misses
system.cpu.itb.stage2_mmu.stage2_tlb.writeHits            0                       # DTB write hits
system.cpu.itb.stage2_mmu.stage2_tlb.writeMisses            0                       # DTB write misses
system.cpu.itb.stage2_mmu.stage2_tlb.inserts            0                       # Number of times an entry is inserted into the TLB
system.cpu.itb.stage2_mmu.stage2_tlb.flushTlb            0                       # Number of times complete TLB was flushed
system.cpu.itb.stage2_mmu.stage2_tlb.flushTlbMva            0                       # Number of times TLB was flushed by MVA
system.cpu.itb.stage2_mmu.stage2_tlb.flushTlbMvaAsid            0                       # Number of times TLB was flushed by MVA & ASID
system.cpu.itb.stage2_mmu.stage2_tlb.flushTlbAsid            0                       # Number of times TLB was flushed by ASID
system.cpu.itb.stage2_mmu.stage2_tlb.flushedEntries            0                       # Number of entries that have been flushed from TLB
system.cpu.itb.stage2_mmu.stage2_tlb.alignFaults            0                       # Number of TLB faults due to alignment restrictions
system.cpu.itb.stage2_mmu.stage2_tlb.prefetchFaults            0                       # Number of TLB faults due to prefetch
system.cpu.itb.stage2_mmu.stage2_tlb.domainFaults            0                       # Number of TLB faults due to domain restrictions
system.cpu.itb.stage2_mmu.stage2_tlb.permsFaults            0                       # Number of TLB faults due to permissions restrictions
system.cpu.itb.stage2_mmu.stage2_tlb.readAccesses            0                       # DTB read accesses
system.cpu.itb.stage2_mmu.stage2_tlb.writeAccesses            0                       # DTB write accesses
system.cpu.itb.stage2_mmu.stage2_tlb.instAccesses            0                       # ITB inst accesses
system.cpu.itb.stage2_mmu.stage2_tlb.hits            0                       # Total TLB (inst and data) hits
system.cpu.itb.stage2_mmu.stage2_tlb.misses            0                       # Total TLB (inst and data) misses
system.cpu.itb.stage2_mmu.stage2_tlb.accesses            0                       # Total TLB (inst and data) accesses
system.cpu.itb.stage2_mmu.stage2_tlb.walker.walks            0                       # Table walker walks requested
system.cpu.itb.stage2_mmu.stage2_tlb.walker.requestOrigin_Requested::Data            0                       # Table walker requests started/completed, data/inst
system.cpu.itb.stage2_mmu.stage2_tlb.walker.requestOrigin_Requested::Inst            0                       # Table walker requests started/completed, data/inst
system.cpu.itb.stage2_mmu.stage2_tlb.walker.requestOrigin_Requested::total            0                       # Table walker requests started/completed, data/inst
system.cpu.itb.stage2_mmu.stage2_tlb.walker.requestOrigin_Completed::Data            0                       # Table walker requests started/completed, data/inst
system.cpu.itb.stage2_mmu.stage2_tlb.walker.requestOrigin_Completed::Inst            0                       # Table walker requests started/completed, data/inst
system.cpu.itb.stage2_mmu.stage2_tlb.walker.requestOrigin_Completed::total            0                       # Table walker requests started/completed, data/inst
system.cpu.itb.stage2_mmu.stage2_tlb.walker.requestOrigin::total            0                       # Table walker requests started/completed, data/inst
system.cpu.itb.stage2_mmu.stage2_tlb.walker.power_state.pwrStateResidencyTicks::UNDEFINED 9882015168800                       # Cumulative time (in ticks) in various power states
system.cpu.itb.walker.walks                         0                       # Table walker walks requested
system.cpu.itb.walker.requestOrigin_Requested::Data            0                       # Table walker requests started/completed, data/inst
system.cpu.itb.walker.requestOrigin_Requested::Inst            0                       # Table walker requests started/completed, data/inst
system.cpu.itb.walker.requestOrigin_Requested::total            0                       # Table walker requests started/completed, data/inst
system.cpu.itb.walker.requestOrigin_Completed::Data            0                       # Table walker requests started/completed, data/inst
system.cpu.itb.walker.requestOrigin_Completed::Inst            0                       # Table walker requests started/completed, data/inst
system.cpu.itb.walker.requestOrigin_Completed::total            0                       # Table walker requests started/completed, data/inst
system.cpu.itb.walker.requestOrigin::total            0                       # Table walker requests started/completed, data/inst
[...]
system.switch_cpus.dtb.walker.requestOrigin_Requested::total            0                       # Table walker requests started/completed, data/inst
system.switch_cpus.dtb.walker.requestOrigin_Completed::Data            0                       # Table walker requests started/completed, data/inst
system.switch_cpus.dtb.walker.requestOrigin_Completed::Inst            0                       # Table walker requests started/completed, data/inst
system.switch_cpus.dtb.walker.requestOrigin_Completed::total            0                       # Table walker requests started/completed, data/inst
system.switch_cpus.dtb.walker.requestOrigin::total            0                       # Table walker requests started/completed, data/inst
system.switch_cpus.dtb.walker.power_state.pwrStateResidencyTicks::UNDEFINED   8582510000                       # Cumulative time (in ticks) in various power states
system.switch_cpus.fetch.icacheStallCycles         9504                       # Number of cycles fetch is stalled on an Icache miss
system.switch_cpus.fetch.insts               11505704                       # Number of instructions fetch has processed
system.switch_cpus.fetch.branches             2677924                       # Number of branches that fetch encountered
system.switch_cpus.fetch.predictedBranches       710361                       # Number of branches that fetch has predicted taken
system.switch_cpus.fetch.cycles              21433582                       # Number of cycles fetch has run and was not squashing or blocked
system.switch_cpus.fetch.squashCycles           26378                       # Number of cycles fetch has spent squashing
system.switch_cpus.fetch.cacheLines           1391968                       # Number of cache lines fetched
system.switch_cpus.fetch.nisnDist::samples     21456275                       # Number of instructions fetched each cycle (Total)
system.switch_cpus.fetch.nisnDist::mean      0.566079                       # Number of instructions fetched each cycle (Total)
system.switch_cpus.fetch.nisnDist::stdev     1.828625                       # Number of instructions fetched each cycle (Total)
system.switch_cpus.fetch.nisnDist::underflows            0      0.00%      0.00% # Number of instructions fetched each cycle (Total)
system.switch_cpus.fetch.nisnDist::0         19175136     89.37%     89.37% # Number of instructions fetched each cycle (Total)
system.switch_cpus.fetch.nisnDist::1           150381      0.70%     90.07% # Number of instructions fetched each cycle (Total)
system.switch_cpus.fetch.nisnDist::2           115547      0.54%     90.61% # Number of instructions fetched each cycle (Total)
system.switch_cpus.fetch.nisnDist::3           638706      2.98%     93.58% # Number of instructions fetched each cycle (Total)
system.switch_cpus.fetch.nisnDist::4            97081      0.45%     94.04% # Number of instructions fetched each cycle (Total)
system.switch_cpus.fetch.nisnDist::5            48505      0.23%     94.26% # Number of instructions fetched each cycle (Total)
system.switch_cpus.fetch.nisnDist::6            82275      0.38%     94.65% # Number of instructions fetched each cycle (Total)
system.switch_cpus.fetch.nisnDist::7           465296      2.17%     96.82% # Number of instructions fetched each cycle (Total)
system.switch_cpus.fetch.nisnDist::8           683348      3.18%    100.00% # Number of instructions fetched each cycle (Total)
system.switch_cpus.fetch.nisnDist::overflows            0      0.00%    100.00% # Number of instructions fetched each cycle (Total)
system.switch_cpus.fetch.nisnDist::min_value            0                       # Number of instructions fetched each cycle (Total)
system.switch_cpus.fetch.nisnDist::max_value            8                       # Number of instructions fetched each cycle (Total)
system.switch_cpus.fetch.nisnDist::total     21456275                       # Number of instructions fetched each cycle (Total)
system.switch_cpus.fetch.branchRate          0.124808                       # Number of branch fetches per cycle
system.switch_cpus.fetch.rate                0.536240                       # Number of inst fetches per cycle
system.switch_cpus.itb.instHits                     0                       # ITB inst hits
system.switch_cpus.itb.instMisses                   0                       # ITB inst misses
system.switch_cpus.itb.readHits                     0                       # DTB read hits
system.switch_cpus.itb.readMisses                   0                       # DTB read misses
system.switch_cpus.itb.writeHits                    0                       # DTB write hits
system.switch_cpus.itb.writeMisses                  0                       # DTB write misses
system.switch_cpus.itb.inserts                      0                       # Number of times an entry is inserted into the TLB
system.switch_cpus.itb.flushTlb                     0                       # Number of times complete TLB was flushed
system.switch_cpus.itb.flushTlbMva                  0                       # Number of times TLB was flushed by MVA
system.switch_cpus.itb.flushTlbMvaAsid              0                       # Number of times TLB was flushed by MVA & ASID
system.switch_cpus.itb.flushTlbAsid                 0                       # Number of times TLB was flushed by ASID
system.switch_cpus.itb.flushedEntries               0                       # Number of entries that have been flushed from TLB
system.switch_cpus.itb.alignFaults                  0                       # Number of TLB faults due to alignment restrictions
system.switch_cpus.itb.prefetchFaults               0                       # Number of TLB faults due to prefetch
system.switch_cpus.itb.domainFaults                 0                       # Number of TLB faults due to domain restrictions
system.switch_cpus.itb.permsFaults                  0                       # Number of TLB faults due to permissions restrictions
system.switch_cpus.itb.readAccesses                 0                       # DTB read accesses
system.switch_cpus.itb.writeAccesses                0                       # DTB write accesses
system.switch_cpus.itb.instAccesses                 0                       # ITB inst accesses
system.switch_cpus.itb.hits                         0                       # Total TLB (inst and data) hits
system.switch_cpus.itb.misses                       0                       # Total TLB (inst and data) misses
system.switch_cpus.itb.accesses                     0                       # Total TLB (inst and data) accesses
system.switch_cpus.itb.stage2_mmu.stage2_tlb.instHits            0                       # ITB inst hits
system.switch_cpus.itb.stage2_mmu.stage2_tlb.instMisses            0                       # ITB inst misses
system.switch_cpus.itb.stage2_mmu.stage2_tlb.readHits            0                       # DTB read hits
system.switch_cpus.itb.stage2_mmu.stage2_tlb.readMisses            0                       # DTB read misses
system.switch_cpus.itb.stage2_mmu.stage2_tlb.writeHits            0                       # DTB write hits
system.switch_cpus.itb.stage2_mmu.stage2_tlb.writeMisses            0                       # DTB write misses
system.switch_cpus.itb.stage2_mmu.stage2_tlb.inserts            0                       # Number of times an entry is inserted into the TLB
system.switch_cpus.itb.stage2_mmu.stage2_tlb.flushTlb            0                       # Number of times complete TLB was flushed
system.switch_cpus.itb.stage2_mmu.stage2_tlb.flushTlbMva            0                       # Number of times TLB was flushed by MVA
system.switch_cpus.itb.stage2_mmu.stage2_tlb.flushTlbMvaAsid            0                       # Number of times TLB was flushed by MVA & ASID
system.switch_cpus.itb.stage2_mmu.stage2_tlb.flushTlbAsid            0                       # Number of times TLB was flushed by ASID
system.switch_cpus.itb.stage2_mmu.stage2_tlb.flushedEntries            0                       # Number of entries that have been flushed from TLB
system.switch_cpus.itb.stage2_mmu.stage2_tlb.alignFaults            0                       # Number of TLB faults due to alignment restrictions
system.switch_cpus.itb.stage2_mmu.stage2_tlb.prefetchFaults            0                       # Number of TLB faults due to prefetch
system.switch_cpus.itb.stage2_mmu.stage2_tlb.domainFaults            0                       # Number of TLB faults due to domain restrictions
system.switch_cpus.itb.stage2_mmu.stage2_tlb.permsFaults            0                       # Number of TLB faults due to permissions restrictions
system.switch_cpus.itb.stage2_mmu.stage2_tlb.readAccesses            0                       # DTB read accesses
system.switch_cpus.itb.stage2_mmu.stage2_tlb.writeAccesses            0                       # DTB write accesses
system.switch_cpus.itb.stage2_mmu.stage2_tlb.instAccesses            0                       # ITB inst accesses
system.switch_cpus.itb.stage2_mmu.stage2_tlb.hits            0                       # Total TLB (inst and data) hits
system.switch_cpus.itb.stage2_mmu.stage2_tlb.misses            0                       # Total TLB (inst and data) misses
system.switch_cpus.itb.stage2_mmu.stage2_tlb.accesses            0                       # Total TLB (inst and data) accesses
system.switch_cpus.itb.stage2_mmu.stage2_tlb.walker.walks            0                       # Table walker walks requested
system.switch_cpus.itb.stage2_mmu.stage2_tlb.walker.requestOrigin_Requested::Data            0                       # Table walker requests started/completed, data/inst
system.switch_cpus.itb.stage2_mmu.stage2_tlb.walker.requestOrigin_Requested::Inst            0                       # Table walker requests started/completed, data/inst
system.switch_cpus.itb.stage2_mmu.stage2_tlb.walker.requestOrigin_Requested::total            0                       # Table walker requests started/completed, data/inst
system.switch_cpus.itb.stage2_mmu.stage2_tlb.walker.requestOrigin_Completed::Data            0                       # Table walker requests started/completed, data/inst
system.switch_cpus.itb.stage2_mmu.stage2_tlb.walker.requestOrigin_Completed::Inst            0                       # Table walker requests started/completed, data/inst
system.switch_cpus.itb.stage2_mmu.stage2_tlb.walker.requestOrigin_Completed::total            0                       # Table walker requests started/completed, data/inst
system.switch_cpus.itb.stage2_mmu.stage2_tlb.walker.requestOrigin::total            0                       # Table walker requests started/completed, data/inst
system.switch_cpus.itb.stage2_mmu.stage2_tlb.walker.power_state.pwrStateResidencyTicks::UNDEFINED   8582510000                       # Cumulative time (in ticks) in various power states
system.switch_cpus.itb.walker.walks                 0                       # Table walker walks requested
system.switch_cpus.itb.walker.requestOrigin_Requested::Data            0                       # Table walker requests started/completed, data/inst
system.switch_cpus.itb.walker.requestOrigin_Requested::Inst            0                       # Table walker requests started/completed, data/inst
system.switch_cpus.itb.walker.requestOrigin_Requested::total            0                       # Table walker requests started/completed, data/inst
system.switch_cpus.itb.walker.requestOrigin_Completed::Data            0                       # Table walker requests started/completed, data/inst
system.switch_cpus.itb.walker.requestOrigin_Completed::Inst            0                       # Table walker requests started/completed, data/inst
system.switch_cpus.itb.walker.requestOrigin_Completed::total            0                       # Table walker requests started/completed, data/inst
system.switch_cpus.itb.walker.requestOrigin::total            0                       # Table walker requests started/completed, data/inst
system.switch_cpus.itb.walker.power_state.pwrStateResidencyTicks::UNDEFINED   8582510000                       # Cumulative time (in ticks) in various power states
system.switch_cpus.lsq0.forwLoads               47190                       # Number of loads that had data forwarded from stores
system.switch_cpus.lsq0.squashedLoads          286731                       # Number of loads squashed
system.switch_cpus.lsq0.ignoredResponses           10                       # Number of memory responses ignored because the instruction is squashed
system.switch_cpus.lsq0.memOrderViolation            8                       # Number of memory ordering violations
system.switch_cpus.lsq0.squashedStores          33275                       # Number of stores squashed
system.switch_cpus.lsq0.rescheduledLoads           51                       # Number of loads that were rescheduled
system.switch_cpus.lsq0.blockedByCache         324149                       # Number of times an access to memory failed due to the cache being blocked
system.switch_cpus.power_state.pwrStateResidencyTicks::OFF   8582510000                       # Cumulative time (in ticks) in various power states
system.switch_cpus.rename.squashCycles          13188                       # Number of cycles rename is squashing
system.switch_cpus.rename.idleCycles           965851                       # Number of cycles rename is idle
system.switch_cpus.rename.blockCycles        14873135                       # Number of cycles rename is blocking
system.switch_cpus.rename.serializeStallCycles            0                       # count of cycles rename stalledfor serializing inst
system.switch_cpus.rename.runCycles           1013157                       # Number of cycles rename is running
system.switch_cpus.rename.unblockCycles       4590944                       # Number of cycles rename is unblocking
system.switch_cpus.rename.renamedInsts       11420660                       # Number of instructions processed by rename
system.switch_cpus.rename.squashedInsts         25015                       # Number of squashed instructions processed by rename
system.switch_cpus.rename.ROBFullEvents         28538                       # Number of times rename has blocked due to ROB full
system.switch_cpus.rename.IQFullEvents         641157                       # Number of times rename has blocked due to IQ full
system.switch_cpus.rename.LQFullEvents            724                       # Number of times rename has blocked due to LQ full
system.switch_cpus.rename.SQFullEvents           1202                       # Number of times rename has blocked due to SQ full
system.switch_cpus.rename.fullRegistersEvents      4083713                       # Number of times there has been no free registers
system.switch_cpus.rename.renamedOperands     16260680                       # Number of destination operands rename has renamed
system.switch_cpus.rename.lookups            20795183                       # Number of register rename lookups that rename has made
system.switch_cpus.rename.intLookups         11589257                       # Number of integer rename lookups
system.switch_cpus.rename.committedMaps      15091291                       # Number of HB maps that are committed
system.switch_cpus.rename.undoneMaps          1169372                       # Number of HB maps that are undone due to squashing
system.switch_cpus.rename.serializing               0                       # count of serializing insts renamed
system.switch_cpus.rename.tempSerializing            0                       # count of temporary serializing insts renamed
system.switch_cpus.rename.skidInsts           4817963                       # count of insts added to the skid buffer
system.switch_cpus.rob.reads                 30439803                       # The number of ROB reads
system.switch_cpus.rob.writes                22965513                       # The number of ROB writes
system.switch_cpus.thread_0.numInsts         10000000                       # Number of Instructions committed
system.switch_cpus.thread_0.numOps           10554280                       # Number of Ops committed
system.switch_cpus.thread_0.numMemRefs              0                       # Number of Memory References
system.tol2bus.trans_dist::ReadResp           1017663                       # Transaction distribution
system.tol2bus.trans_dist::WritebackDirty        21913                       # Transaction distribution
system.tol2bus.trans_dist::WritebackClean      1003593                       # Transaction distribution
system.tol2bus.trans_dist::CleanEvict          502350                       # Transaction distribution
system.tol2bus.trans_dist::HardPFReq           369773                       # Transaction distribution
system.tol2bus.trans_dist::ReadExReq             4426                       # Transaction distribution
system.tol2bus.trans_dist::ReadExResp            4426                       # Transaction distribution
system.tol2bus.trans_dist::ReadSharedReq      1017667                       # Transaction distribution
system.tol2bus.pkt_count_system.cpu.dcache.mem_side_port::system.l2.cpu_side_port      3066271                       # Packet count per connected requestor and responder (bytes)
system.tol2bus.pkt_count::total               3066271                       # Packet count per connected requestor and responder (bytes)
system.tol2bus.pkt_size_system.cpu.dcache.mem_side_port::system.l2.cpu_side_port    261654784                       # Cumulative packet size per connected requestor and responder (bytes)
system.tol2bus.pkt_size::total              261654784                       # Cumulative packet size per connected requestor and responder (bytes)
system.tol2bus.snoops                          875540                       # Total snoops (count)
system.tol2bus.snoopTraffic                    437376                       # Total snoop traffic (bytes)
system.tol2bus.snoop_fanout::samples          1897633                       # Request fanout histogram
system.tol2bus.snoop_fanout::mean            0.001588                       # Request fanout histogram
system.tol2bus.snoop_fanout::stdev           0.039822                       # Request fanout histogram
system.tol2bus.snoop_fanout::underflows             0      0.00%      0.00% # Request fanout histogram
system.tol2bus.snoop_fanout::0                1894619     99.84%     99.84% # Request fanout histogram
system.tol2bus.snoop_fanout::1                   3014      0.16%    100.00% # Request fanout histogram
system.tol2bus.snoop_fanout::2                      0      0.00%    100.00% # Request fanout histogram
system.tol2bus.snoop_fanout::3                      0      0.00%    100.00% # Request fanout histogram
system.tol2bus.snoop_fanout::4                      0      0.00%    100.00% # Request fanout histogram
system.tol2bus.snoop_fanout::overflows              0      0.00%    100.00% # Request fanout histogram
system.tol2bus.snoop_fanout::min_value              0                       # Request fanout histogram
system.tol2bus.snoop_fanout::max_value              1                       # Request fanout histogram
system.tol2bus.snoop_fanout::total            1897633                       # Request fanout histogram
system.tol2bus.power_state.pwrStateResidencyTicks::UNDEFINED   8582510000                       # Cumulative time (in ticks) in various power states
system.tol2bus.reqLayer0.occupancy         2453015200                       # Layer occupancy (ticks)
system.tol2bus.reqLayer0.utilization             28.6                       # Layer utilization (%)
system.tol2bus.respLayer1.occupancy        2044178000                       # Layer occupancy (ticks)
system.tol2bus.respLayer1.utilization            23.8                       # Layer utilization (%)
system.voltage_domain.voltage                       1                       # Voltage in Volts

---------- End Simulation Statistics   ----------
