
---------- Begin Simulation Statistics ----------
final_tick                               305023177200                       # Number of ticks from beginning of simulation (restored from checkpoints and never reset)
host_inst_rate                                 352311                       # Simulator instruction rate (inst/s)
host_mem_usage                               16977292                       # Number of bytes of host memory used
host_op_rate                                   352323                       # Simulator op (including micro ops) rate (op/s)
host_seconds                                    28.38                       # Real time elapsed on the host
host_tick_rate                              100115981                       # Simulator tick rate (ticks/s)
sim_freq                                 1000000000000                       # Frequency of simulated ticks
sim_insts                                    10000026                       # Number of instructions simulated
sim_ops                                      10000382                       # Number of ops (including micro ops) simulated
sim_seconds                                  0.002842                       # Number of seconds simulated
sim_ticks                                  2841704000                       # Number of ticks simulated
system.cpu.Branches                                 6                       # Number of branches fetched
system.cpu.committedInsts                          25                       # Number of instructions committed
system.cpu.committedOps                            25                       # Number of ops (including micro ops) committed
system.cpu.idle_fraction                            0                       # Percentage of idle cycles
system.cpu.not_idle_fraction                        1                       # Percentage of non-idle cycles
system.cpu.numCycles                               25                       # number of cpu cycles simulated
system.cpu.numWorkItemsCompleted                    0                       # number of work items this cpu completed
system.cpu.numWorkItemsStarted                      0                       # number of work items this cpu started
system.cpu.num_busy_cycles                         25                       # Number of busy cycles
system.cpu.num_cc_register_reads                   18                       # number of times the CC registers were read
system.cpu.num_cc_register_writes                  18                       # number of times the CC registers were written
system.cpu.num_conditional_control_insts            6                       # number of instructions that are conditional controls
system.cpu.num_fp_alu_accesses                      0                       # Number of float alu accesses
system.cpu.num_fp_insts                             0                       # number of float instructions
system.cpu.num_fp_register_reads                    0                       # number of times the floating registers were read
system.cpu.num_fp_register_writes                   0                       # number of times the floating registers were written
system.cpu.num_func_calls                           0                       # number of times a function call or return occured
system.cpu.num_idle_cycles                          0                       # Number of idle cycles
system.cpu.num_int_alu_accesses                    19                       # Number of integer alu accesses
system.cpu.num_int_insts                           19                       # number of integer instructions
system.cpu.num_int_register_reads                  23                       # number of times the integer registers were read
system.cpu.num_int_register_writes                 19                       # number of times the integer registers were written
system.cpu.num_load_insts                          10                       # Number of load instructions
system.cpu.num_mem_refs                            10                       # number of memory refs
system.cpu.num_store_insts                          0                       # Number of store instructions
system.cpu.num_vec_alu_accesses                     0                       # Number of vector alu accesses
system.cpu.num_vec_insts                            0                       # number of vector instructions
system.cpu.num_vec_register_reads                   0                       # number of times the vector registers were read
system.cpu.num_vec_register_writes                  0                       # number of times the vector registers were written
system.cpu.op_class::No_OpClass                     0      0.00%      0.00% # Class of executed instruction
system.cpu.op_class::IntAlu                        15     60.00%     60.00% # Class of executed instruction
system.cpu.op_class::IntMult                        0      0.00%     60.00% # Class of executed instruction
system.cpu.op_class::IntDiv                         0      0.00%     60.00% # Class of executed instruction
system.cpu.op_class::FloatAdd                       0      0.00%     60.00% # Class of executed instruction
system.cpu.op_class::FloatCmp                       0      0.00%     60.00% # Class of executed instruction
system.cpu.op_class::FloatCvt                       0      0.00%     60.00% # Class of executed instruction
system.cpu.op_class::FloatMult                      0      0.00%     60.00% # Class of executed instruction
system.cpu.op_class::FloatMultAcc                   0      0.00%     60.00% # Class of executed instruction
system.cpu.op_class::FloatDiv                       0      0.00%     60.00% # Class of executed instruction
system.cpu.op_class::FloatMisc                      0      0.00%     60.00% # Class of executed instruction
system.cpu.op_class::FloatSqrt                      0      0.00%     60.00% # Class of executed instruction
system.cpu.op_class::SimdAdd                        0      0.00%     60.00% # Class of executed instruction
system.cpu.op_class::SimdAddAcc                     0      0.00%     60.00% # Class of executed instruction
system.cpu.op_class::SimdAlu                        0      0.00%     60.00% # Class of executed instruction
system.cpu.op_class::SimdCmp                        0      0.00%     60.00% # Class of executed instruction
system.cpu.op_class::SimdCvt                        0      0.00%     60.00% # Class of executed instruction
system.cpu.op_class::SimdMisc                       0      0.00%     60.00% # Class of executed instruction
system.cpu.op_class::SimdMult                       0      0.00%     60.00% # Class of executed instruction
system.cpu.op_class::SimdMultAcc                    0      0.00%     60.00% # Class of executed instruction
system.cpu.op_class::SimdShift                      0      0.00%     60.00% # Class of executed instruction
system.cpu.op_class::SimdShiftAcc                   0      0.00%     60.00% # Class of executed instruction
system.cpu.op_class::SimdDiv                        0      0.00%     60.00% # Class of executed instruction
system.cpu.op_class::SimdSqrt                       0      0.00%     60.00% # Class of executed instruction
system.cpu.op_class::SimdFloatAdd                   0      0.00%     60.00% # Class of executed instruction
system.cpu.op_class::SimdFloatAlu                   0      0.00%     60.00% # Class of executed instruction
system.cpu.op_class::SimdFloatCmp                   0      0.00%     60.00% # Class of executed instruction
system.cpu.op_class::SimdFloatCvt                   0      0.00%     60.00% # Class of executed instruction
system.cpu.op_class::SimdFloatDiv                   0      0.00%     60.00% # Class of executed instruction
system.cpu.op_class::SimdFloatMisc                  0      0.00%     60.00% # Class of executed instruction
system.cpu.op_class::SimdFloatMult                  0      0.00%     60.00% # Class of executed instruction
system.cpu.op_class::SimdFloatMultAcc               0      0.00%     60.00% # Class of executed instruction
system.cpu.op_class::SimdFloatSqrt                  0      0.00%     60.00% # Class of executed instruction
system.cpu.op_class::SimdReduceAdd                  0      0.00%     60.00% # Class of executed instruction
system.cpu.op_class::SimdReduceAlu                  0      0.00%     60.00% # Class of executed instruction
system.cpu.op_class::SimdReduceCmp                  0      0.00%     60.00% # Class of executed instruction
system.cpu.op_class::SimdFloatReduceAdd             0      0.00%     60.00% # Class of executed instruction
system.cpu.op_class::SimdFloatReduceCmp             0      0.00%     60.00% # Class of executed instruction
system.cpu.op_class::SimdAes                        0      0.00%     60.00% # Class of executed instruction
system.cpu.op_class::SimdAesMix                     0      0.00%     60.00% # Class of executed instruction
system.cpu.op_class::SimdSha1Hash                   0      0.00%     60.00% # Class of executed instruction
system.cpu.op_class::SimdSha1Hash2                  0      0.00%     60.00% # Class of executed instruction
system.cpu.op_class::SimdSha256Hash                 0      0.00%     60.00% # Class of executed instruction
system.cpu.op_class::SimdSha256Hash2                0      0.00%     60.00% # Class of executed instruction
system.cpu.op_class::SimdShaSigma2                  0      0.00%     60.00% # Class of executed instruction
system.cpu.op_class::SimdShaSigma3                  0      0.00%     60.00% # Class of executed instruction
system.cpu.op_class::SimdPredAlu                    0      0.00%     60.00% # Class of executed instruction
system.cpu.op_class::MemRead                       10     40.00%    100.00% # Class of executed instruction
system.cpu.op_class::MemWrite                       0      0.00%    100.00% # Class of executed instruction
system.cpu.op_class::FloatMemRead                   0      0.00%    100.00% # Class of executed instruction
system.cpu.op_class::FloatMemWrite                  0      0.00%    100.00% # Class of executed instruction
system.cpu.op_class::IprAccess                      0      0.00%    100.00% # Class of executed instruction
system.cpu.op_class::InstPrefetch                   0      0.00%    100.00% # Class of executed instruction
system.cpu.op_class::total                         25                       # Class of executed instruction
system.cpu.workload.numSyscalls                     5                       # Number of system calls
system.membus.snoop_filter.hit_multi_requests            0                       # Number of requests hitting in the snoop filter with multiple (>1) holders of the requested data.
system.membus.snoop_filter.hit_multi_snoops            0                       # Number of snoops hitting in the snoop filter with multiple (>1) holders of the requested data.
system.membus.snoop_filter.hit_single_requests        14656                       # Number of requests hitting in the snoop filter with a single holder of the requested data.
system.membus.snoop_filter.hit_single_snoops            0                       # Number of snoops hitting in the snoop filter with a single holder of the requested data.
system.membus.snoop_filter.tot_requests         37639                       # Total number of requests made to the snoop filter.
system.membus.snoop_filter.tot_snoops               0                       # Total number of snoops made to the snoop filter.
system.switch_cpus.cc_regfile_reads           3812937                       # number of cc regfile reads
system.switch_cpus.cc_regfile_writes          3830265                       # number of cc regfile writes
system.switch_cpus.committedInsts            10000001                       # Number of Instructions Simulated
system.switch_cpus.committedOps              10000357                       # Number of Ops (including micro ops) Simulated
system.switch_cpus.cpi                       0.710423                       # CPI: Cycles Per Instruction
system.switch_cpus.cpi_total                 0.710423                       # CPI: Total CPI of All Threads
system.switch_cpus.idleCycles                    9372                       # Total number of cycles that the CPU has spent unscheduled due to idling
system.switch_cpus.iew.branchMispredicts        27555                       # Number of branch mispredicts detected at execute
system.switch_cpus.iew.exec_branches          1309204                       # Number of branches executed
system.switch_cpus.iew.exec_nop                   773                       # number of nop insts executed
system.switch_cpus.iew.exec_rate             1.521515                       # Inst execution rate
system.switch_cpus.iew.exec_refs              5391015                       # number of memory reference insts executed
system.switch_cpus.iew.exec_stores             806222                       # Number of stores executed
system.switch_cpus.iew.exec_swp                     0                       # number of swp insts executed
system.switch_cpus.iew.iewBlockCycles          537737                       # Number of cycles IEW is blocking
system.switch_cpus.iew.iewDispLoadInsts       5143094                       # Number of dispatched load instructions
system.switch_cpus.iew.iewDispNonSpecInsts           57                       # Number of dispatched non-speculative instructions
system.switch_cpus.iew.iewDispSquashedInsts            0                       # Number of squashed instructions skipped by dispatch
system.switch_cpus.iew.iewDispStoreInsts       938423                       # Number of dispatched store instructions
system.switch_cpus.iew.iewDispatchedInsts     12214429                       # Number of instructions dispatched to IQ
system.switch_cpus.iew.iewExecLoadInsts       4584793                       # Number of load instructions executed
system.switch_cpus.iew.iewExecSquashedInsts        55937                       # Number of squashed instructions skipped in execute
system.switch_cpus.iew.iewExecutedInsts      10809197                       # Number of executed instructions
system.switch_cpus.iew.iewIQFullEvents            113                       # Number of times the IQ has become full, causing a stall
system.switch_cpus.iew.iewIdleCycles                0                       # Number of cycles IEW is idle
system.switch_cpus.iew.iewLSQFullEvents             0                       # Number of times the LSQ has become full, causing a stall
system.switch_cpus.iew.iewSquashCycles          25857                       # Number of cycles IEW is squashing
system.switch_cpus.iew.iewUnblockCycles           135                       # Number of cycles IEW is unblocking
system.switch_cpus.iew.memOrderViolationEvents          583                       # Number of memory order violations
system.switch_cpus.iew.predictedNotTakenIncorrect        11161                       # Number of branches that were predicted not taken incorrectly
system.switch_cpus.iew.predictedTakenIncorrect        16394                       # Number of branches that were predicted taken incorrectly
system.switch_cpus.iew.wb_consumers          11117676                       # num instructions consuming a value
system.switch_cpus.iew.wb_count              10766533                       # cumulative count of insts written-back
system.switch_cpus.iew.wb_fanout             0.769332                       # average fanout of values written-back
system.switch_cpus.iew.wb_producers           8553183                       # num instructions producing a value
system.switch_cpus.iew.wb_rate               1.515509                       # insts written-back per cycle
system.switch_cpus.iew.wb_sent               10787231                       # cumulative count of insts sent to commit
system.switch_cpus.int_regfile_reads         11564572                       # number of integer regfile reads
system.switch_cpus.int_regfile_writes         8673660                       # number of integer regfile writes
system.switch_cpus.ipc                       1.407611                       # IPC: Instructions Per Cycle
system.switch_cpus.ipc_total                 1.407611                       # IPC: Total IPC of All Threads
system.switch_cpus.iq.FU_type_0::No_OpClass            2      0.00%      0.00% # Type of FU issued
system.switch_cpus.iq.FU_type_0::IntAlu       5420441     49.89%     49.89% # Type of FU issued
system.switch_cpus.iq.FU_type_0::IntMult            5      0.00%     49.89% # Type of FU issued
system.switch_cpus.iq.FU_type_0::IntDiv             0      0.00%     49.89% # Type of FU issued
system.switch_cpus.iq.FU_type_0::FloatAdd            4      0.00%     49.89% # Type of FU issued
system.switch_cpus.iq.FU_type_0::FloatCmp            0      0.00%     49.89% # Type of FU issued
system.switch_cpus.iq.FU_type_0::FloatCvt            0      0.00%     49.89% # Type of FU issued
system.switch_cpus.iq.FU_type_0::FloatMult            1      0.00%     49.89% # Type of FU issued
system.switch_cpus.iq.FU_type_0::FloatMultAcc            0      0.00%     49.89% # Type of FU issued
system.switch_cpus.iq.FU_type_0::FloatDiv            0      0.00%     49.89% # Type of FU issued
system.switch_cpus.iq.FU_type_0::FloatMisc            0      0.00%     49.89% # Type of FU issued
system.switch_cpus.iq.FU_type_0::FloatSqrt            0      0.00%     49.89% # Type of FU issued
system.switch_cpus.iq.FU_type_0::SimdAdd            0      0.00%     49.89% # Type of FU issued
system.switch_cpus.iq.FU_type_0::SimdAddAcc            0      0.00%     49.89% # Type of FU issued
system.switch_cpus.iq.FU_type_0::SimdAlu            0      0.00%     49.89% # Type of FU issued
system.switch_cpus.iq.FU_type_0::SimdCmp            0      0.00%     49.89% # Type of FU issued
system.switch_cpus.iq.FU_type_0::SimdCvt            7      0.00%     49.89% # Type of FU issued
system.switch_cpus.iq.FU_type_0::SimdMisc            0      0.00%     49.89% # Type of FU issued
system.switch_cpus.iq.FU_type_0::SimdMult            0      0.00%     49.89% # Type of FU issued
system.switch_cpus.iq.FU_type_0::SimdMultAcc            0      0.00%     49.89% # Type of FU issued
system.switch_cpus.iq.FU_type_0::SimdShift            0      0.00%     49.89% # Type of FU issued
system.switch_cpus.iq.FU_type_0::SimdShiftAcc            0      0.00%     49.89% # Type of FU issued
system.switch_cpus.iq.FU_type_0::SimdDiv            0      0.00%     49.89% # Type of FU issued
system.switch_cpus.iq.FU_type_0::SimdSqrt            0      0.00%     49.89% # Type of FU issued
system.switch_cpus.iq.FU_type_0::SimdFloatAdd            0      0.00%     49.89% # Type of FU issued
system.switch_cpus.iq.FU_type_0::SimdFloatAlu            0      0.00%     49.89% # Type of FU issued
system.switch_cpus.iq.FU_type_0::SimdFloatCmp            0      0.00%     49.89% # Type of FU issued
system.switch_cpus.iq.FU_type_0::SimdFloatCvt            0      0.00%     49.89% # Type of FU issued
system.switch_cpus.iq.FU_type_0::SimdFloatDiv            0      0.00%     49.89% # Type of FU issued
system.switch_cpus.iq.FU_type_0::SimdFloatMisc            0      0.00%     49.89% # Type of FU issued
system.switch_cpus.iq.FU_type_0::SimdFloatMult            0      0.00%     49.89% # Type of FU issued
system.switch_cpus.iq.FU_type_0::SimdFloatMultAcc            0      0.00%     49.89% # Type of FU issued
system.switch_cpus.iq.FU_type_0::SimdFloatSqrt            0      0.00%     49.89% # Type of FU issued
system.switch_cpus.iq.FU_type_0::SimdReduceAdd            0      0.00%     49.89% # Type of FU issued
system.switch_cpus.iq.FU_type_0::SimdReduceAlu            0      0.00%     49.89% # Type of FU issued
system.switch_cpus.iq.FU_type_0::SimdReduceCmp            0      0.00%     49.89% # Type of FU issued
system.switch_cpus.iq.FU_type_0::SimdFloatReduceAdd            0      0.00%     49.89% # Type of FU issued
system.switch_cpus.iq.FU_type_0::SimdFloatReduceCmp            0      0.00%     49.89% # Type of FU issued
system.switch_cpus.iq.FU_type_0::SimdAes            0      0.00%     49.89% # Type of FU issued
system.switch_cpus.iq.FU_type_0::SimdAesMix            0      0.00%     49.89% # Type of FU issued
system.switch_cpus.iq.FU_type_0::SimdSha1Hash            0      0.00%     49.89% # Type of FU issued
system.switch_cpus.iq.FU_type_0::SimdSha1Hash2            0      0.00%     49.89% # Type of FU issued
system.switch_cpus.iq.FU_type_0::SimdSha256Hash            0      0.00%     49.89% # Type of FU issued
system.switch_cpus.iq.FU_type_0::SimdSha256Hash2            0      0.00%     49.89% # Type of FU issued
system.switch_cpus.iq.FU_type_0::SimdShaSigma2            0      0.00%     49.89% # Type of FU issued
system.switch_cpus.iq.FU_type_0::SimdShaSigma3            0      0.00%     49.89% # Type of FU issued
system.switch_cpus.iq.FU_type_0::SimdPredAlu            0      0.00%     49.89% # Type of FU issued
system.switch_cpus.iq.FU_type_0::MemRead      4627639     42.59%     92.48% # Type of FU issued
system.switch_cpus.iq.FU_type_0::MemWrite       817038      7.52%    100.00% # Type of FU issued
system.switch_cpus.iq.FU_type_0::FloatMemRead            0      0.00%    100.00% # Type of FU issued
system.switch_cpus.iq.FU_type_0::FloatMemWrite            0      0.00%    100.00% # Type of FU issued
system.switch_cpus.iq.FU_type_0::IprAccess            0      0.00%    100.00% # Type of FU issued
system.switch_cpus.iq.FU_type_0::InstPrefetch            0      0.00%    100.00% # Type of FU issued
system.switch_cpus.iq.FU_type_0::total       10865137                       # Type of FU issued
system.switch_cpus.iq.fp_alu_accesses               0                       # Number of floating point alu accesses
system.switch_cpus.iq.fp_inst_queue_reads            0                       # Number of floating instruction queue reads
system.switch_cpus.iq.fp_inst_queue_wakeup_accesses            0                       # Number of floating instruction queue wakeup accesses
system.switch_cpus.iq.fp_inst_queue_writes            0                       # Number of floating instruction queue writes
system.switch_cpus.iq.fu_busy_cnt             4672841                       # FU busy when requested
system.switch_cpus.iq.fu_busy_rate           0.430077                       # FU busy rate (busy events/executed inst)
system.switch_cpus.iq.fu_full::No_OpClass            0      0.00%      0.00% # attempts to use FU when none available
system.switch_cpus.iq.fu_full::IntAlu          450753      9.65%      9.65% # attempts to use FU when none available
system.switch_cpus.iq.fu_full::IntMult              0      0.00%      9.65% # attempts to use FU when none available
system.switch_cpus.iq.fu_full::IntDiv               0      0.00%      9.65% # attempts to use FU when none available
system.switch_cpus.iq.fu_full::FloatAdd             0      0.00%      9.65% # attempts to use FU when none available
system.switch_cpus.iq.fu_full::FloatCmp             0      0.00%      9.65% # attempts to use FU when none available
system.switch_cpus.iq.fu_full::FloatCvt             0      0.00%      9.65% # attempts to use FU when none available
system.switch_cpus.iq.fu_full::FloatMult            0      0.00%      9.65% # attempts to use FU when none available
system.switch_cpus.iq.fu_full::FloatMultAcc            0      0.00%      9.65% # attempts to use FU when none available
system.switch_cpus.iq.fu_full::FloatDiv             0      0.00%      9.65% # attempts to use FU when none available
system.switch_cpus.iq.fu_full::FloatMisc            0      0.00%      9.65% # attempts to use FU when none available
system.switch_cpus.iq.fu_full::FloatSqrt            0      0.00%      9.65% # attempts to use FU when none available
system.switch_cpus.iq.fu_full::SimdAdd              0      0.00%      9.65% # attempts to use FU when none available
system.switch_cpus.iq.fu_full::SimdAddAcc            0      0.00%      9.65% # attempts to use FU when none available
system.switch_cpus.iq.fu_full::SimdAlu              0      0.00%      9.65% # attempts to use FU when none available
system.switch_cpus.iq.fu_full::SimdCmp              0      0.00%      9.65% # attempts to use FU when none available
system.switch_cpus.iq.fu_full::SimdCvt              0      0.00%      9.65% # attempts to use FU when none available
system.switch_cpus.iq.fu_full::SimdMisc             0      0.00%      9.65% # attempts to use FU when none available
system.switch_cpus.iq.fu_full::SimdMult             0      0.00%      9.65% # attempts to use FU when none available
system.switch_cpus.iq.fu_full::SimdMultAcc            0      0.00%      9.65% # attempts to use FU when none available
system.switch_cpus.iq.fu_full::SimdShift            0      0.00%      9.65% # attempts to use FU when none available
system.switch_cpus.iq.fu_full::SimdShiftAcc            0      0.00%      9.65% # attempts to use FU when none available
system.switch_cpus.iq.fu_full::SimdDiv              0      0.00%      9.65% # attempts to use FU when none available
system.switch_cpus.iq.fu_full::SimdSqrt             0      0.00%      9.65% # attempts to use FU when none available
system.switch_cpus.iq.fu_full::SimdFloatAdd            0      0.00%      9.65% # attempts to use FU when none available
system.switch_cpus.iq.fu_full::SimdFloatAlu            0      0.00%      9.65% # attempts to use FU when none available
system.switch_cpus.iq.fu_full::SimdFloatCmp            0      0.00%      9.65% # attempts to use FU when none available
system.switch_cpus.iq.fu_full::SimdFloatCvt            0      0.00%      9.65% # attempts to use FU when none available
system.switch_cpus.iq.fu_full::SimdFloatDiv            0      0.00%      9.65% # attempts to use FU when none available
system.switch_cpus.iq.fu_full::SimdFloatMisc            0      0.00%      9.65% # attempts to use FU when none available
system.switch_cpus.iq.fu_full::SimdFloatMult            0      0.00%      9.65% # attempts to use FU when none available
system.switch_cpus.iq.fu_full::SimdFloatMultAcc            0      0.00%      9.65% # attempts to use FU when none available
system.switch_cpus.iq.fu_full::SimdFloatSqrt            0      0.00%      9.65% # attempts to use FU when none available
system.switch_cpus.iq.fu_full::SimdReduceAdd            0      0.00%      9.65% # attempts to use FU when none available
system.switch_cpus.iq.fu_full::SimdReduceAlu            0      0.00%      9.65% # attempts to use FU when none available
system.switch_cpus.iq.fu_full::SimdReduceCmp            0      0.00%      9.65% # attempts to use FU when none available
system.switch_cpus.iq.fu_full::SimdFloatReduceAdd            0      0.00%      9.65% # attempts to use FU when none available
system.switch_cpus.iq.fu_full::SimdFloatReduceCmp            0      0.00%      9.65% # attempts to use FU when none available
system.switch_cpus.iq.fu_full::SimdAes              0      0.00%      9.65% # attempts to use FU when none available
system.switch_cpus.iq.fu_full::SimdAesMix            0      0.00%      9.65% # attempts to use FU when none available
system.switch_cpus.iq.fu_full::SimdSha1Hash            0      0.00%      9.65% # attempts to use FU when none available
system.switch_cpus.iq.fu_full::SimdSha1Hash2            0      0.00%      9.65% # attempts to use FU when none available
system.switch_cpus.iq.fu_full::SimdSha256Hash            0      0.00%      9.65% # attempts to use FU when none available
system.switch_cpus.iq.fu_full::SimdSha256Hash2            0      0.00%      9.65% # attempts to use FU when none available
system.switch_cpus.iq.fu_full::SimdShaSigma2            0      0.00%      9.65% # attempts to use FU when none available
system.switch_cpus.iq.fu_full::SimdShaSigma3            0      0.00%      9.65% # attempts to use FU when none available
system.switch_cpus.iq.fu_full::SimdPredAlu            0      0.00%      9.65% # attempts to use FU when none available
system.switch_cpus.iq.fu_full::MemRead        4187587     89.62%     99.26% # attempts to use FU when none available
system.switch_cpus.iq.fu_full::MemWrite         34501      0.74%    100.00% # attempts to use FU when none available
system.switch_cpus.iq.fu_full::FloatMemRead            0      0.00%    100.00% # attempts to use FU when none available
system.switch_cpus.iq.fu_full::FloatMemWrite            0      0.00%    100.00% # attempts to use FU when none available
system.switch_cpus.iq.fu_full::IprAccess            0      0.00%    100.00% # attempts to use FU when none available
system.switch_cpus.iq.fu_full::InstPrefetch            0      0.00%    100.00% # attempts to use FU when none available
system.switch_cpus.iq.int_alu_accesses       15537840                       # Number of integer alu accesses
system.switch_cpus.iq.int_inst_queue_reads     33645252                       # Number of integer instruction queue reads
system.switch_cpus.iq.int_inst_queue_wakeup_accesses     10766500                       # Number of integer instruction queue wakeup accesses
system.switch_cpus.iq.int_inst_queue_writes     14427131                       # Number of integer instruction queue writes
system.switch_cpus.iq.iqInstsAdded           12213599                       # Number of instructions added to the IQ (excludes non-spec)
system.switch_cpus.iq.iqInstsIssued          10865137                       # Number of instructions issued
system.switch_cpus.iq.iqNonSpecInstsAdded           57                       # Number of non-speculative instructions added to the IQ
system.switch_cpus.iq.iqSquashedInstsExamined      2213180                       # Number of squashed instructions iterated over during squash; mainly for profiling
system.switch_cpus.iq.iqSquashedInstsIssued       147529                       # Number of squashed instructions issued
system.switch_cpus.iq.iqSquashedNonSpecRemoved           52                       # Number of squashed non-spec instructions that were removed
system.switch_cpus.iq.iqSquashedOperandsExamined      2173026                       # Number of squashed operands that are examined and possibly removed from graph
system.switch_cpus.iq.issued_per_cycle::samples      7094863                       # Number of insts issued each cycle
system.switch_cpus.iq.issued_per_cycle::mean     1.531409                       # Number of insts issued each cycle
system.switch_cpus.iq.issued_per_cycle::stdev     1.206105                       # Number of insts issued each cycle
system.switch_cpus.iq.issued_per_cycle::underflows            0      0.00%      0.00% # Number of insts issued each cycle
system.switch_cpus.iq.issued_per_cycle::0      2110697     29.75%     29.75% # Number of insts issued each cycle
system.switch_cpus.iq.issued_per_cycle::1      1154057     16.27%     46.02% # Number of insts issued each cycle
system.switch_cpus.iq.issued_per_cycle::2      1894741     26.71%     72.72% # Number of insts issued each cycle
system.switch_cpus.iq.issued_per_cycle::3      1819876     25.65%     98.37% # Number of insts issued each cycle
system.switch_cpus.iq.issued_per_cycle::4       115490      1.63%    100.00% # Number of insts issued each cycle
system.switch_cpus.iq.issued_per_cycle::5            2      0.00%    100.00% # Number of insts issued each cycle
system.switch_cpus.iq.issued_per_cycle::6            0      0.00%    100.00% # Number of insts issued each cycle
system.switch_cpus.iq.issued_per_cycle::7            0      0.00%    100.00% # Number of insts issued each cycle
system.switch_cpus.iq.issued_per_cycle::8            0      0.00%    100.00% # Number of insts issued each cycle
system.switch_cpus.iq.issued_per_cycle::overflows            0      0.00%    100.00% # Number of insts issued each cycle
system.switch_cpus.iq.issued_per_cycle::min_value            0                       # Number of insts issued each cycle
system.switch_cpus.iq.issued_per_cycle::max_value            5                       # Number of insts issued each cycle
system.switch_cpus.iq.issued_per_cycle::total      7094863                       # Number of insts issued each cycle
system.switch_cpus.iq.rate                   1.529389                       # Inst issue rate
system.switch_cpus.iq.vec_alu_accesses            136                       # Number of vector alu accesses
system.switch_cpus.iq.vec_inst_queue_reads          252                       # Number of vector instruction queue reads
system.switch_cpus.iq.vec_inst_queue_wakeup_accesses           33                       # Number of vector instruction queue wakeup accesses
system.switch_cpus.iq.vec_inst_queue_writes          260                       # Number of vector instruction queue writes
system.switch_cpus.memDep0.conflictingLoads      2161305                       # Number of conflicting loads.
system.switch_cpus.memDep0.conflictingStores       490516                       # Number of conflicting stores.
system.switch_cpus.memDep0.insertedLoads      5143094                       # Number of loads inserted to the mem dependence unit.
system.switch_cpus.memDep0.insertedStores       938423                       # Number of stores inserted to the mem dependence unit.
system.switch_cpus.misc_regfile_reads        24419751                       # number of misc regfile reads
system.switch_cpus.misc_regfile_writes              9                       # number of misc regfile writes
system.switch_cpus.numCycles                  7104235                       # number of cpu cycles simulated
system.switch_cpus.numWorkItemsCompleted            0                       # number of work items this cpu completed
system.switch_cpus.numWorkItemsStarted              0                       # number of work items this cpu started
system.switch_cpus.timesIdled                      82                       # Number of times that the entire CPU went into an idle state and unscheduled itself
system.switch_cpus.vec_regfile_reads               24                       # number of vector regfile reads
system.switch_cpus.vec_regfile_writes              70                       # number of vector regfile writes
system.tol2bus.snoop_filter.hit_multi_requests            0                       # Number of requests hitting in the snoop filter with multiple (>1) holders of the requested data.
system.tol2bus.snoop_filter.hit_multi_snoops            0                       # Number of snoops hitting in the snoop filter with multiple (>1) holders of the requested data.
system.tol2bus.snoop_filter.hit_single_requests       186750                       # Number of requests hitting in the snoop filter with a single holder of the requested data.
system.tol2bus.snoop_filter.hit_single_snoops          600                       # Number of snoops hitting in the snoop filter with a single holder of the requested data.
system.tol2bus.snoop_filter.tot_requests       373880                       # Total number of requests made to the snoop filter.
system.tol2bus.snoop_filter.tot_snoops            600                       # Total number of snoops made to the snoop filter.
system.clk_domain.clock                          1000                       # Clock period in ticks
system.cpu.dcache.demand_hits::.cpu.data            7                       # number of demand (read+write) hits
system.cpu.dcache.demand_hits::.switch_cpus.data      3280043                       # number of demand (read+write) hits
system.cpu.dcache.demand_hits::total          3280050                       # number of demand (read+write) hits
system.cpu.dcache.overall_hits::.cpu.data            7                       # number of overall hits
system.cpu.dcache.overall_hits::.switch_cpus.data      3280043                       # number of overall hits
system.cpu.dcache.overall_hits::total         3280050                       # number of overall hits
system.cpu.dcache.demand_misses::.cpu.data            3                       # number of demand (read+write) misses
system.cpu.dcache.demand_misses::.switch_cpus.data       309253                       # number of demand (read+write) misses
system.cpu.dcache.demand_misses::total         309256                       # number of demand (read+write) misses
system.cpu.dcache.overall_misses::.cpu.data            3                       # number of overall misses
system.cpu.dcache.overall_misses::.switch_cpus.data       309253                       # number of overall misses
system.cpu.dcache.overall_misses::total        309256                       # number of overall misses
system.cpu.dcache.demand_miss_latency::.switch_cpus.data   4668927600                       # number of demand (read+write) miss cycles
system.cpu.dcache.demand_miss_latency::total   4668927600                       # number of demand (read+write) miss cycles
system.cpu.dcache.overall_miss_latency::.switch_cpus.data   4668927600                       # number of overall miss cycles
system.cpu.dcache.overall_miss_latency::total   4668927600                       # number of overall miss cycles
system.cpu.dcache.demand_accesses::.cpu.data           10                       # number of demand (read+write) accesses
system.cpu.dcache.demand_accesses::.switch_cpus.data      3589296                       # number of demand (read+write) accesses
system.cpu.dcache.demand_accesses::total      3589306                       # number of demand (read+write) accesses
system.cpu.dcache.overall_accesses::.cpu.data           10                       # number of overall (read+write) accesses
system.cpu.dcache.overall_accesses::.switch_cpus.data      3589296                       # number of overall (read+write) accesses
system.cpu.dcache.overall_accesses::total      3589306                       # number of overall (read+write) accesses
system.cpu.dcache.demand_miss_rate::.cpu.data     0.300000                       # miss rate for demand accesses
system.cpu.dcache.demand_miss_rate::.switch_cpus.data     0.086160                       # miss rate for demand accesses
system.cpu.dcache.demand_miss_rate::total     0.086160                       # miss rate for demand accesses
system.cpu.dcache.overall_miss_rate::.cpu.data     0.300000                       # miss rate for overall accesses
system.cpu.dcache.overall_miss_rate::.switch_cpus.data     0.086160                       # miss rate for overall accesses
system.cpu.dcache.overall_miss_rate::total     0.086160                       # miss rate for overall accesses
system.cpu.dcache.demand_avg_miss_latency::.switch_cpus.data 15097.436727                       # average overall miss latency
system.cpu.dcache.demand_avg_miss_latency::total 15097.290271                       # average overall miss latency
system.cpu.dcache.overall_avg_miss_latency::.switch_cpus.data 15097.436727                       # average overall miss latency
system.cpu.dcache.overall_avg_miss_latency::total 15097.290271                       # average overall miss latency
system.cpu.dcache.blocked_cycles::no_mshrs          519                       # number of cycles access was blocked
system.cpu.dcache.blocked_cycles::no_targets        15004                       # number of cycles access was blocked
system.cpu.dcache.blocked::no_mshrs                73                       # number of cycles access was blocked
system.cpu.dcache.blocked::no_targets              84                       # number of cycles access was blocked
system.cpu.dcache.avg_blocked_cycles::no_mshrs     7.109589                       # average number of cycles each access was blocked
system.cpu.dcache.avg_blocked_cycles::no_targets   178.619048                       # average number of cycles each access was blocked
system.cpu.dcache.writebacks::.writebacks       186750                       # number of writebacks
system.cpu.dcache.writebacks::total            186750                       # number of writebacks
system.cpu.dcache.demand_mshr_hits::.switch_cpus.data       122248                       # number of demand (read+write) MSHR hits
system.cpu.dcache.demand_mshr_hits::total       122248                       # number of demand (read+write) MSHR hits
system.cpu.dcache.overall_mshr_hits::.switch_cpus.data       122248                       # number of overall MSHR hits
system.cpu.dcache.overall_mshr_hits::total       122248                       # number of overall MSHR hits
system.cpu.dcache.demand_mshr_misses::.switch_cpus.data       187005                       # number of demand (read+write) MSHR misses
system.cpu.dcache.demand_mshr_misses::total       187005                       # number of demand (read+write) MSHR misses
system.cpu.dcache.overall_mshr_misses::.switch_cpus.data       187005                       # number of overall MSHR misses
system.cpu.dcache.overall_mshr_misses::total       187005                       # number of overall MSHR misses
system.cpu.dcache.demand_mshr_miss_latency::.switch_cpus.data   2032820800                       # number of demand (read+write) MSHR miss cycles
system.cpu.dcache.demand_mshr_miss_latency::total   2032820800                       # number of demand (read+write) MSHR miss cycles
system.cpu.dcache.overall_mshr_miss_latency::.switch_cpus.data   2032820800                       # number of overall MSHR miss cycles
system.cpu.dcache.overall_mshr_miss_latency::total   2032820800                       # number of overall MSHR miss cycles
system.cpu.dcache.demand_mshr_miss_rate::.switch_cpus.data     0.052101                       # mshr miss rate for demand accesses
system.cpu.dcache.demand_mshr_miss_rate::total     0.052101                       # mshr miss rate for demand accesses
system.cpu.dcache.overall_mshr_miss_rate::.switch_cpus.data     0.052101                       # mshr miss rate for overall accesses
system.cpu.dcache.overall_mshr_miss_rate::total     0.052101                       # mshr miss rate for overall accesses
system.cpu.dcache.demand_avg_mshr_miss_latency::.switch_cpus.data 10870.408813                       # average overall mshr miss latency
system.cpu.dcache.demand_avg_mshr_miss_latency::total 10870.408813                       # average overall mshr miss latency
system.cpu.dcache.overall_avg_mshr_miss_latency::.switch_cpus.data 10870.408813                       # average overall mshr miss latency
system.cpu.dcache.overall_avg_mshr_miss_latency::total 10870.408813                       # average overall mshr miss latency
system.cpu.dcache.replacements                 186750                       # number of replacements
system.cpu.dcache.ReadReq_hits::.cpu.data            7                       # number of ReadReq hits
system.cpu.dcache.ReadReq_hits::.switch_cpus.data      2543718                       # number of ReadReq hits
system.cpu.dcache.ReadReq_hits::total         2543725                       # number of ReadReq hits
system.cpu.dcache.ReadReq_misses::.cpu.data            3                       # number of ReadReq misses
system.cpu.dcache.ReadReq_misses::.switch_cpus.data       303223                       # number of ReadReq misses
system.cpu.dcache.ReadReq_misses::total        303226                       # number of ReadReq misses
system.cpu.dcache.ReadReq_miss_latency::.switch_cpus.data   4548449600                       # number of ReadReq miss cycles
system.cpu.dcache.ReadReq_miss_latency::total   4548449600                       # number of ReadReq miss cycles
system.cpu.dcache.ReadReq_accesses::.cpu.data           10                       # number of ReadReq accesses(hits+misses)
system.cpu.dcache.ReadReq_accesses::.switch_cpus.data      2846941                       # number of ReadReq accesses(hits+misses)
system.cpu.dcache.ReadReq_accesses::total      2846951                       # number of ReadReq accesses(hits+misses)
system.cpu.dcache.ReadReq_miss_rate::.cpu.data     0.300000                       # miss rate for ReadReq accesses
system.cpu.dcache.ReadReq_miss_rate::.switch_cpus.data     0.106508                       # miss rate for ReadReq accesses
system.cpu.dcache.ReadReq_miss_rate::total     0.106509                       # miss rate for ReadReq accesses
system.cpu.dcache.ReadReq_avg_miss_latency::.switch_cpus.data 15000.344961                       # average ReadReq miss latency
system.cpu.dcache.ReadReq_avg_miss_latency::total 15000.196553                       # average ReadReq miss latency
system.cpu.dcache.ReadReq_mshr_hits::.switch_cpus.data       120333                       # number of ReadReq MSHR hits
system.cpu.dcache.ReadReq_mshr_hits::total       120333                       # number of ReadReq MSHR hits
system.cpu.dcache.ReadReq_mshr_misses::.switch_cpus.data       182890                       # number of ReadReq MSHR misses
system.cpu.dcache.ReadReq_mshr_misses::total       182890                       # number of ReadReq MSHR misses
system.cpu.dcache.ReadReq_mshr_miss_latency::.switch_cpus.data   1959738000                       # number of ReadReq MSHR miss cycles
system.cpu.dcache.ReadReq_mshr_miss_latency::total   1959738000                       # number of ReadReq MSHR miss cycles
system.cpu.dcache.ReadReq_mshr_miss_rate::.switch_cpus.data     0.064241                       # mshr miss rate for ReadReq accesses
system.cpu.dcache.ReadReq_mshr_miss_rate::total     0.064241                       # mshr miss rate for ReadReq accesses
system.cpu.dcache.ReadReq_avg_mshr_miss_latency::.switch_cpus.data 10715.391766                       # average ReadReq mshr miss latency
system.cpu.dcache.ReadReq_avg_mshr_miss_latency::total 10715.391766                       # average ReadReq mshr miss latency
system.cpu.dcache.WriteReq_hits::.switch_cpus.data       736325                       # number of WriteReq hits
system.cpu.dcache.WriteReq_hits::total         736325                       # number of WriteReq hits
system.cpu.dcache.WriteReq_misses::.switch_cpus.data         6030                       # number of WriteReq misses
system.cpu.dcache.WriteReq_misses::total         6030                       # number of WriteReq misses
system.cpu.dcache.WriteReq_miss_latency::.switch_cpus.data    120478000                       # number of WriteReq miss cycles
system.cpu.dcache.WriteReq_miss_latency::total    120478000                       # number of WriteReq miss cycles
system.cpu.dcache.WriteReq_accesses::.switch_cpus.data       742355                       # number of WriteReq accesses(hits+misses)
system.cpu.dcache.WriteReq_accesses::total       742355                       # number of WriteReq accesses(hits+misses)
system.cpu.dcache.WriteReq_miss_rate::.switch_cpus.data     0.008123                       # miss rate for WriteReq accesses
system.cpu.dcache.WriteReq_miss_rate::total     0.008123                       # miss rate for WriteReq accesses
system.cpu.dcache.WriteReq_avg_miss_latency::.switch_cpus.data 19979.767828                       # average WriteReq miss latency
system.cpu.dcache.WriteReq_avg_miss_latency::total 19979.767828                       # average WriteReq miss latency
system.cpu.dcache.WriteReq_mshr_hits::.switch_cpus.data         1915                       # number of WriteReq MSHR hits
system.cpu.dcache.WriteReq_mshr_hits::total         1915                       # number of WriteReq MSHR hits
system.cpu.dcache.WriteReq_mshr_misses::.switch_cpus.data         4115                       # number of WriteReq MSHR misses
system.cpu.dcache.WriteReq_mshr_misses::total         4115                       # number of WriteReq MSHR misses
system.cpu.dcache.WriteReq_mshr_miss_latency::.switch_cpus.data     73082800                       # number of WriteReq MSHR miss cycles
system.cpu.dcache.WriteReq_mshr_miss_latency::total     73082800                       # number of WriteReq MSHR miss cycles
system.cpu.dcache.WriteReq_mshr_miss_rate::.switch_cpus.data     0.005543                       # mshr miss rate for WriteReq accesses
system.cpu.dcache.WriteReq_mshr_miss_rate::total     0.005543                       # mshr miss rate for WriteReq accesses
system.cpu.dcache.WriteReq_avg_mshr_miss_latency::.switch_cpus.data 17760.097205                       # average WriteReq mshr miss latency
system.cpu.dcache.WriteReq_avg_mshr_miss_latency::total 17760.097205                       # average WriteReq mshr miss latency
system.cpu.dcache.power_state.pwrStateResidencyTicks::UNDEFINED 305023177200                       # Cumulative time (in ticks) in various power states
system.cpu.dcache.tags.tagsinuse           255.545866                       # Cycle average of tags in use
system.cpu.dcache.tags.total_refs             2842556                       # Total number of references to valid blocks.
system.cpu.dcache.tags.sampled_refs            186750                       # Sample count of references to valid blocks.
system.cpu.dcache.tags.avg_refs             15.221183                       # Average number of references to valid blocks.
system.cpu.dcache.tags.warmup_cycle      302181474400                       # Cycle when the warmup percentage was hit.
system.cpu.dcache.tags.occ_blocks::.cpu.data     0.874281                       # Average occupied blocks per requestor
system.cpu.dcache.tags.occ_blocks::.switch_cpus.data   254.671585                       # Average occupied blocks per requestor
system.cpu.dcache.tags.occ_percent::.cpu.data     0.003415                       # Average percentage of cache occupancy
system.cpu.dcache.tags.occ_percent::.switch_cpus.data     0.994811                       # Average percentage of cache occupancy
system.cpu.dcache.tags.occ_percent::total     0.998226                       # Average percentage of cache occupancy
system.cpu.dcache.tags.occ_task_id_blocks::1024          256                       # Occupied blocks per task id
system.cpu.dcache.tags.age_task_id_blocks_1024::0          253                       # Occupied blocks per task id
system.cpu.dcache.tags.age_task_id_blocks_1024::1            1                       # Occupied blocks per task id
system.cpu.dcache.tags.age_task_id_blocks_1024::2            2                       # Occupied blocks per task id
system.cpu.dcache.tags.occ_task_id_percent::1024            1                       # Percentage of cache occupancy per task id
system.cpu.dcache.tags.tag_accesses          28901454                       # Number of tag accesses
system.cpu.dcache.tags.data_accesses         28901454                       # Number of data accesses
system.cpu.dcache.tags.power_state.pwrStateResidencyTicks::UNDEFINED 305023177200                       # Cumulative time (in ticks) in various power states
system.cpu.dtb.instHits                             0                       # ITB inst hits
system.cpu.dtb.instMisses                           0                       # ITB inst misses
system.cpu.dtb.readHits                             0                       # DTB read hits
system.cpu.dtb.readMisses                           0                       # DTB read misses
system.cpu.dtb.writeHits                            0                       # DTB write hits
system.cpu.dtb.writeMisses                          0                       # DTB write misses
system.cpu.dtb.inserts                              0                       # Number of times an entry is inserted into the TLB
system.cpu.dtb.flushTlb                             2                       # Number of times complete TLB was flushed
system.cpu.dtb.flushTlbMva                          0                       # Number of times TLB was flushed by MVA
system.cpu.dtb.flushTlbMvaAsid                      0                       # Number of times TLB was flushed by MVA & ASID
system.cpu.dtb.flushTlbAsid                         0                       # Number of times TLB was flushed by ASID
system.cpu.dtb.flushedEntries                       0                       # Number of entries that have been flushed from TLB
system.cpu.dtb.alignFaults                          0                       # Number of TLB faults due to alignment restrictions
system.cpu.dtb.prefetchFaults                       0                       # Number of TLB faults due to prefetch
system.cpu.dtb.domainFaults                         0                       # Number of TLB faults due to domain restrictions
system.cpu.dtb.permsFaults                          0                       # Number of TLB faults due to permissions restrictions
system.cpu.dtb.readAccesses                         0                       # DTB read accesses
system.cpu.dtb.writeAccesses                        0                       # DTB write accesses
system.cpu.dtb.instAccesses                         0                       # ITB inst accesses
system.cpu.dtb.hits                                 0                       # Total TLB (inst and data) hits
system.cpu.dtb.misses                               0                       # Total TLB (inst and data) misses
system.cpu.dtb.accesses                             0                       # Total TLB (inst and data) accesses
system.cpu.dtb.stage2_mmu.stage2_tlb.instHits            0                       # ITB inst hits
system.cpu.dtb.stage2_mmu.stage2_tlb.instMisses            0                       # ITB inst misses
system.cpu.dtb.stage2_mmu.stage2_tlb.readHits            0                       # DTB read hits
system.cpu.dtb.stage2_mmu.stage2_tlb.readMisses            0                       # DTB read misses
system.cpu.dtb.stage2_mmu.stage2_tlb.writeHits            0                       # DTB write hits
system.cpu.dtb.stage2_mmu.stage2_tlb.writeMisses            0                       # DTB write misses
system.cpu.dtb.stage2_mmu.stage2_tlb.inserts            0                       # Number of times an entry is inserted into the TLB
system.cpu.dtb.stage2_mmu.stage2_tlb.flushTlb            0                       # Number of times complete TLB was flushed
system.cpu.dtb.stage2_mmu.stage2_tlb.flushTlbMva            0                       # Number of times TLB was flushed by MVA
system.cpu.dtb.stage2_mmu.stage2_tlb.flushTlbMvaAsid            0                       # Number of times TLB was flushed by MVA & ASID
system.cpu.dtb.stage2_mmu.stage2_tlb.flushTlbAsid            0                       # Number of times TLB was flushed by ASID
system.cpu.dtb.stage2_mmu.stage2_tlb.flushedEntries            0                       # Number of entries that have been flushed from TLB
system.cpu.dtb.stage2_mmu.stage2_tlb.alignFaults            0                       # Number of TLB faults due to alignment restrictions
system.cpu.dtb.stage2_mmu.stage2_tlb.prefetchFaults            0                       # Number of TLB faults due to prefetch
system.cpu.dtb.stage2_mmu.stage2_tlb.domainFaults            0                       # Number of TLB faults due to domain restrictions
system.cpu.dtb.stage2_mmu.stage2_tlb.permsFaults            0                       # Number of TLB faults due to permissions restrictions
system.cpu.dtb.stage2_mmu.stage2_tlb.readAccesses            0                       # DTB read accesses
system.cpu.dtb.stage2_mmu.stage2_tlb.writeAccesses            0                       # DTB write accesses
system.cpu.dtb.stage2_mmu.stage2_tlb.instAccesses            0                       # ITB inst accesses
system.cpu.dtb.stage2_mmu.stage2_tlb.hits            0                       # Total TLB (inst and data) hits
system.cpu.dtb.stage2_mmu.stage2_tlb.misses            0                       # Total TLB (inst and data) misses
system.cpu.dtb.stage2_mmu.stage2_tlb.accesses            0                       # Total TLB (inst and data) accesses
system.cpu.dtb.stage2_mmu.stage2_tlb.walker.walks            0                       # Table walker walks requested
system.cpu.dtb.stage2_mmu.stage2_tlb.walker.requestOrigin_Requested::Data            0                       # Table walker requests started/completed, data/inst
system.cpu.dtb.stage2_mmu.stage2_tlb.walker.requestOrigin_Requested::Inst            0                       # Table walker requests started/completed, data/inst
system.cpu.dtb.stage2_mmu.stage2_tlb.walker.requestOrigin_Requested::total            0                       # Table walker requests started/completed, data/inst
system.cpu.dtb.stage2_mmu.stage2_tlb.walker.requestOrigin_Completed::Data            0                       # Table walker requests started/completed, data/inst
system.cpu.dtb.stage2_mmu.stage2_tlb.walker.requestOrigin_Completed::Inst            0                       # Table walker requests started/completed, data/inst
system.cpu.dtb.stage2_mmu.stage2_tlb.walker.requestOrigin_Completed::total            0                       # Table walker requests started/completed, data/inst
system.cpu.dtb.stage2_mmu.stage2_tlb.walker.requestOrigin::total            0                       # Table walker requests started/completed, data/inst
system.cpu.dtb.stage2_mmu.stage2_tlb.walker.power_state.pwrStateResidencyTicks::UNDEFINED 305023177200                       # Cumulative time (in ticks) in various power states
system.cpu.dtb.walker.walks                         0                       # Table walker walks requested
system.cpu.dtb.walker.requestOrigin_Requested::Data            0                       # Table walker requests started/completed, data/inst
system.cpu.dtb.walker.requestOrigin_Requested::Inst            0                       # Table walker requests started/completed, data/inst
system.cpu.dtb.walker.requestOrigin_Requested::total            0                       # Table walker requests started/completed, data/inst
system.cpu.dtb.walker.requestOrigin_Completed::Data            0                       # Table walker requests started/completed, data/inst
system.cpu.dtb.walker.requestOrigin_Completed::Inst            0                       # Table walker requests started/completed, data/inst
system.cpu.dtb.walker.requestOrigin_Completed::total            0                       # Table walker requests started/completed, data/inst
system.cpu.dtb.walker.requestOrigin::total            0                       # Table walker requests started/completed, data/inst
system.cpu.dtb.walker.power_state.pwrStateResidencyTicks::UNDEFINED 305023177200                       # Cumulative time (in ticks) in various power states
system.cpu.dtb_walker_cache.blocked_cycles::no_mshrs            0                       # number of cycles access was blocked
system.cpu.dtb_walker_cache.blocked_cycles::no_targets            0                       # number of cycles access was blocked
system.cpu.dtb_walker_cache.blocked::no_mshrs            0                       # number of cycles access was blocked
system.cpu.dtb_walker_cache.blocked::no_targets            0                       # number of cycles access was blocked
system.cpu.dtb_walker_cache.avg_blocked_cycles::no_mshrs          nan                       # average number of cycles each access was blocked
system.cpu.dtb_walker_cache.avg_blocked_cycles::no_targets          nan                       # average number of cycles each access was blocked
system.cpu.dtb_walker_cache.replacements            0                       # number of replacements
system.cpu.dtb_walker_cache.power_state.pwrStateResidencyTicks::UNDEFINED 305023177200                       # Cumulative time (in ticks) in various power states
system.cpu.dtb_walker_cache.tags.tagsinuse            0                       # Cycle average of tags in use
system.cpu.dtb_walker_cache.tags.total_refs            0                       # Total number of references to valid blocks.
system.cpu.dtb_walker_cache.tags.sampled_refs            0                       # Sample count of references to valid blocks.
system.cpu.dtb_walker_cache.tags.avg_refs          nan                       # Average number of references to valid blocks.
system.cpu.dtb_walker_cache.tags.warmup_cycle            0                       # Cycle when the warmup percentage was hit.
system.cpu.dtb_walker_cache.tags.tag_accesses            0                       # Number of tag accesses
system.cpu.dtb_walker_cache.tags.data_accesses            0                       # Number of data accesses
system.cpu.dtb_walker_cache.tags.power_state.pwrStateResidencyTicks::UNDEFINED 305023177200                       # Cumulative time (in ticks) in various power states
system.cpu.icache.demand_hits::.cpu.inst           23                       # number of demand (read+write) hits
system.cpu.icache.demand_hits::.switch_cpus.inst      1566095                       # number of demand (read+write) hits
system.cpu.icache.demand_hits::total          1566118                       # number of demand (read+write) hits
system.cpu.icache.overall_hits::.cpu.inst           23                       # number of overall hits
system.cpu.icache.overall_hits::.switch_cpus.inst      1566095                       # number of overall hits
system.cpu.icache.overall_hits::total         1566118                       # number of overall hits
system.cpu.icache.demand_misses::.cpu.inst            2                       # number of demand (read+write) misses
system.cpu.icache.demand_misses::.switch_cpus.inst          179                       # number of demand (read+write) misses
system.cpu.icache.demand_misses::total            181                       # number of demand (read+write) misses
system.cpu.icache.overall_misses::.cpu.inst            2                       # number of overall misses
system.cpu.icache.overall_misses::.switch_cpus.inst          179                       # number of overall misses
system.cpu.icache.overall_misses::total           181                       # number of overall misses
system.cpu.icache.demand_miss_latency::.switch_cpus.inst     11942799                       # number of demand (read+write) miss cycles
system.cpu.icache.demand_miss_latency::total     11942799                       # number of demand (read+write) miss cycles
system.cpu.icache.overall_miss_latency::.switch_cpus.inst     11942799                       # number of overall miss cycles
system.cpu.icache.overall_miss_latency::total     11942799                       # number of overall miss cycles
system.cpu.icache.demand_accesses::.cpu.inst           25                       # number of demand (read+write) accesses
system.cpu.icache.demand_accesses::.switch_cpus.inst      1566274                       # number of demand (read+write) accesses
system.cpu.icache.demand_accesses::total      1566299                       # number of demand (read+write) accesses
system.cpu.icache.overall_accesses::.cpu.inst           25                       # number of overall (read+write) accesses
system.cpu.icache.overall_accesses::.switch_cpus.inst      1566274                       # number of overall (read+write) accesses
system.cpu.icache.overall_accesses::total      1566299                       # number of overall (read+write) accesses
system.cpu.icache.demand_miss_rate::.cpu.inst     0.080000                       # miss rate for demand accesses
system.cpu.icache.demand_miss_rate::.switch_cpus.inst     0.000114                       # miss rate for demand accesses
system.cpu.icache.demand_miss_rate::total     0.000116                       # miss rate for demand accesses
system.cpu.icache.overall_miss_rate::.cpu.inst     0.080000                       # miss rate for overall accesses
system.cpu.icache.overall_miss_rate::.switch_cpus.inst     0.000114                       # miss rate for overall accesses
system.cpu.icache.overall_miss_rate::total     0.000116                       # miss rate for overall accesses
system.cpu.icache.demand_avg_miss_latency::.switch_cpus.inst 66719.547486                       # average overall miss latency
system.cpu.icache.demand_avg_miss_latency::total 65982.314917                       # average overall miss latency
system.cpu.icache.overall_avg_miss_latency::.switch_cpus.inst 66719.547486                       # average overall miss latency
system.cpu.icache.overall_avg_miss_latency::total 65982.314917                       # average overall miss latency
system.cpu.icache.blocked_cycles::no_mshrs         5719                       # number of cycles access was blocked
system.cpu.icache.blocked_cycles::no_targets            0                       # number of cycles access was blocked
system.cpu.icache.blocked::no_mshrs                49                       # number of cycles access was blocked
system.cpu.icache.blocked::no_targets               0                       # number of cycles access was blocked
system.cpu.icache.avg_blocked_cycles::no_mshrs   116.714286                       # average number of cycles each access was blocked
system.cpu.icache.avg_blocked_cycles::no_targets          nan                       # average number of cycles each access was blocked
system.cpu.icache.demand_mshr_hits::.switch_cpus.inst           59                       # number of demand (read+write) MSHR hits
system.cpu.icache.demand_mshr_hits::total           59                       # number of demand (read+write) MSHR hits
system.cpu.icache.overall_mshr_hits::.switch_cpus.inst           59                       # number of overall MSHR hits
system.cpu.icache.overall_mshr_hits::total           59                       # number of overall MSHR hits
system.cpu.icache.demand_mshr_misses::.switch_cpus.inst          120                       # number of demand (read+write) MSHR misses
system.cpu.icache.demand_mshr_misses::total          120                       # number of demand (read+write) MSHR misses
system.cpu.icache.overall_mshr_misses::.switch_cpus.inst          120                       # number of overall MSHR misses
system.cpu.icache.overall_mshr_misses::total          120                       # number of overall MSHR misses
system.cpu.icache.demand_mshr_miss_latency::.switch_cpus.inst      8969199                       # number of demand (read+write) MSHR miss cycles
system.cpu.icache.demand_mshr_miss_latency::total      8969199                       # number of demand (read+write) MSHR miss cycles
system.cpu.icache.overall_mshr_miss_latency::.switch_cpus.inst      8969199                       # number of overall MSHR miss cycles
system.cpu.icache.overall_mshr_miss_latency::total      8969199                       # number of overall MSHR miss cycles
system.cpu.icache.demand_mshr_miss_rate::.switch_cpus.inst     0.000077                       # mshr miss rate for demand accesses
system.cpu.icache.demand_mshr_miss_rate::total     0.000077                       # mshr miss rate for demand accesses
system.cpu.icache.overall_mshr_miss_rate::.switch_cpus.inst     0.000077                       # mshr miss rate for overall accesses
system.cpu.icache.overall_mshr_miss_rate::total     0.000077                       # mshr miss rate for overall accesses
system.cpu.icache.demand_avg_mshr_miss_latency::.switch_cpus.inst 74743.325000                       # average overall mshr miss latency
system.cpu.icache.demand_avg_mshr_miss_latency::total 74743.325000                       # average overall mshr miss latency
system.cpu.icache.overall_avg_mshr_miss_latency::.switch_cpus.inst 74743.325000                       # average overall mshr miss latency
system.cpu.icache.overall_avg_mshr_miss_latency::total 74743.325000                       # average overall mshr miss latency
system.cpu.icache.replacements                      0                       # number of replacements
system.cpu.icache.ReadReq_hits::.cpu.inst           23                       # number of ReadReq hits
system.cpu.icache.ReadReq_hits::.switch_cpus.inst      1566095                       # number of ReadReq hits
system.cpu.icache.ReadReq_hits::total         1566118                       # number of ReadReq hits
system.cpu.icache.ReadReq_misses::.cpu.inst            2                       # number of ReadReq misses
system.cpu.icache.ReadReq_misses::.switch_cpus.inst          179                       # number of ReadReq misses
system.cpu.icache.ReadReq_misses::total           181                       # number of ReadReq misses
system.cpu.icache.ReadReq_miss_latency::.switch_cpus.inst     11942799                       # number of ReadReq miss cycles
system.cpu.icache.ReadReq_miss_latency::total     11942799                       # number of ReadReq miss cycles
system.cpu.icache.ReadReq_accesses::.cpu.inst           25                       # number of ReadReq accesses(hits+misses)
system.cpu.icache.ReadReq_accesses::.switch_cpus.inst      1566274                       # number of ReadReq accesses(hits+misses)
system.cpu.icache.ReadReq_accesses::total      1566299                       # number of ReadReq accesses(hits+misses)
system.cpu.icache.ReadReq_miss_rate::.cpu.inst     0.080000                       # miss rate for ReadReq accesses
system.cpu.icache.ReadReq_miss_rate::.switch_cpus.inst     0.000114                       # miss rate for ReadReq accesses
system.cpu.icache.ReadReq_miss_rate::total     0.000116                       # miss rate for ReadReq accesses
system.cpu.icache.ReadReq_avg_miss_latency::.switch_cpus.inst 66719.547486                       # average ReadReq miss latency
system.cpu.icache.ReadReq_avg_miss_latency::total 65982.314917                       # average ReadReq miss latency
system.cpu.icache.ReadReq_mshr_hits::.switch_cpus.inst           59                       # number of ReadReq MSHR hits
system.cpu.icache.ReadReq_mshr_hits::total           59                       # number of ReadReq MSHR hits
system.cpu.icache.ReadReq_mshr_misses::.switch_cpus.inst          120                       # number of ReadReq MSHR misses
system.cpu.icache.ReadReq_mshr_misses::total          120                       # number of ReadReq MSHR misses
system.cpu.icache.ReadReq_mshr_miss_latency::.switch_cpus.inst      8969199                       # number of ReadReq MSHR miss cycles
system.cpu.icache.ReadReq_mshr_miss_latency::total      8969199                       # number of ReadReq MSHR miss cycles
system.cpu.icache.ReadReq_mshr_miss_rate::.switch_cpus.inst     0.000077                       # mshr miss rate for ReadReq accesses
system.cpu.icache.ReadReq_mshr_miss_rate::total     0.000077                       # mshr miss rate for ReadReq accesses
system.cpu.icache.ReadReq_avg_mshr_miss_latency::.switch_cpus.inst 74743.325000                       # average ReadReq mshr miss latency
system.cpu.icache.ReadReq_avg_mshr_miss_latency::total 74743.325000                       # average ReadReq mshr miss latency
system.cpu.icache.power_state.pwrStateResidencyTicks::UNDEFINED 305023177200                       # Cumulative time (in ticks) in various power states
system.cpu.icache.tags.tagsinuse            87.293592                       # Cycle average of tags in use
system.cpu.icache.tags.total_refs                   0                       # Total number of references to valid blocks.
system.cpu.icache.tags.sampled_refs                 0                       # Sample count of references to valid blocks.
system.cpu.icache.tags.avg_refs                   nan                       # Average number of references to valid blocks.
system.cpu.icache.tags.warmup_cycle      302181473600                       # Cycle when the warmup percentage was hit.
system.cpu.icache.tags.occ_blocks::.cpu.inst     1.999998                       # Average occupied blocks per requestor
system.cpu.icache.tags.occ_blocks::.switch_cpus.inst    85.293593                       # Average occupied blocks per requestor
system.cpu.icache.tags.occ_percent::.cpu.inst     0.003906                       # Average percentage of cache occupancy
system.cpu.icache.tags.occ_percent::.switch_cpus.inst     0.166589                       # Average percentage of cache occupancy
system.cpu.icache.tags.occ_percent::total     0.170495                       # Average percentage of cache occupancy
system.cpu.icache.tags.occ_task_id_blocks::1024          122                       # Occupied blocks per task id
system.cpu.icache.tags.age_task_id_blocks_1024::2           32                       # Occupied blocks per task id
system.cpu.icache.tags.age_task_id_blocks_1024::3           90                       # Occupied blocks per task id
system.cpu.icache.tags.occ_task_id_percent::1024     0.238281                       # Percentage of cache occupancy per task id
system.cpu.icache.tags.tag_accesses          12530514                       # Number of tag accesses
system.cpu.icache.tags.data_accesses         12530514                       # Number of data accesses
system.cpu.icache.tags.power_state.pwrStateResidencyTicks::UNDEFINED 305023177200                       # Cumulative time (in ticks) in various power states
system.cpu.itb.instHits                             0                       # ITB inst hits
system.cpu.itb.instMisses                           0                       # ITB inst misses
system.cpu.itb.readHits                             0                       # DTB read hits
system.cpu.itb.readMisses                           0                       # DTB read misses
system.cpu.itb.writeHits                            0                       # DTB write hits
system.cpu.itb.writeMisses                          0                       # DTB write misses
system.cpu.itb.inserts                              0                       # Number of times an entry is inserted into the TLB
system.cpu.itb.flushTlb                             2                       # Number of times complete TLB was flushed
system.cpu.itb.flushTlbMva                          0                       # Number of times TLB was flushed by MVA
system.cpu.itb.flushTlbMvaAsid                      0                       # Number of times TLB was flushed by MVA & ASID
system.cpu.itb.flushTlbAsid                         0                       # Number of times TLB was flushed by ASID
system.cpu.itb.flushedEntries                       0                       # Number of entries that have been flushed from TLB
system.cpu.itb.alignFaults                          0                       # Number of TLB faults due to alignment restrictions
system.cpu.itb.prefetchFaults                       0                       # Number of TLB faults due to prefetch
system.cpu.itb.domainFaults                         0                       # Number of TLB faults due to domain restrictions
system.cpu.itb.permsFaults                          0                       # Number of TLB faults due to permissions restrictions
system.cpu.itb.readAccesses                         0                       # DTB read accesses
system.cpu.itb.writeAccesses                        0                       # DTB write accesses
system.cpu.itb.instAccesses                         0                       # ITB inst accesses
system.cpu.itb.hits                                 0                       # Total TLB (inst and data) hits
system.cpu.itb.misses                               0                       # Total TLB (inst and data) misses
system.cpu.itb.accesses                             0                       # Total TLB (inst and data) accesses
system.cpu.itb.stage2_mmu.stage2_tlb.instHits            0                       # ITB inst hits
system.cpu.itb.stage2_mmu.stage2_tlb.instMisses            0                       # ITB inst misses
system.cpu.itb.stage2_mmu.stage2_tlb.readHits            0                       # DTB read hits
system.cpu.itb.stage2_mmu.stage2_tlb.readMisses            0                       # DTB read misses
system.cpu.itb.stage2_mmu.stage2_tlb.writeHits            0                       # DTB write hits
system.cpu.itb.stage2_mmu.stage2_tlb.writeMisses            0                       # DTB write misses
system.cpu.itb.stage2_mmu.stage2_tlb.inserts            0                       # Number of times an entry is inserted into the TLB
system.cpu.itb.stage2_mmu.stage2_tlb.flushTlb            0                       # Number of times complete TLB was flushed
system.cpu.itb.stage2_mmu.stage2_tlb.flushTlbMva            0                       # Number of times TLB was flushed by MVA
system.cpu.itb.stage2_mmu.stage2_tlb.flushTlbMvaAsid            0                       # Number of times TLB was flushed by MVA & ASID
system.cpu.itb.stage2_mmu.stage2_tlb.flushTlbAsid            0                       # Number of times TLB was flushed by ASID
system.cpu.itb.stage2_mmu.stage2_tlb.flushedEntries            0                       # Number of entries that have been flushed from TLB
system.cpu.itb.stage2_mmu.stage2_tlb.alignFaults            0                       # Number of TLB faults due to alignment restrictions
system.cpu.itb.stage2_mmu.stage2_tlb.prefetchFaults            0                       # Number of TLB faults due to prefetch
system.cpu.itb.stage2_mmu.stage2_tlb.domainFaults            0                       # Number of TLB faults due to domain restrictions
system.cpu.itb.stage2_mmu.stage2_tlb.permsFaults            0                       # Number of TLB faults due to permissions restrictions
system.cpu.itb.stage2_mmu.stage2_tlb.readAccesses            0                       # DTB read accesses
system.cpu.itb.stage2_mmu.stage2_tlb.writeAccesses            0                       # DTB write accesses
system.cpu.itb.stage2_mmu.stage2_tlb.instAccesses            0                       # ITB inst accesses
system.cpu.itb.stage2_mmu.stage2_tlb.hits            0                       # Total TLB (inst and data) hits
system.cpu.itb.stage2_mmu.stage2_tlb.misses            0                       # Total TLB (inst and data) misses
system.cpu.itb.stage2_mmu.stage2_tlb.accesses            0                       # Total TLB (inst and data) accesses
system.cpu.itb.stage2_mmu.stage2_tlb.walker.walks            0                       # Table walker walks requested
system.cpu.itb.stage2_mmu.stage2_tlb.walker.requestOrigin_Requested::Data            0                       # Table walker requests started/completed, data/inst
system.cpu.itb.stage2_mmu.stage2_tlb.walker.requestOrigin_Requested::Inst            0                       # Table walker requests started/completed, data/inst
system.cpu.itb.stage2_mmu.stage2_tlb.walker.requestOrigin_Requested::total            0                       # Table walker requests started/completed, data/inst
system.cpu.itb.stage2_mmu.stage2_tlb.walker.requestOrigin_Completed::Data            0                       # Table walker requests started/completed, data/inst
system.cpu.itb.stage2_mmu.stage2_tlb.walker.requestOrigin_Completed::Inst            0                       # Table walker requests started/completed, data/inst
system.cpu.itb.stage2_mmu.stage2_tlb.walker.requestOrigin_Completed::total            0                       # Table walker requests started/completed, data/inst
system.cpu.itb.stage2_mmu.stage2_tlb.walker.requestOrigin::total            0                       # Table walker requests started/completed, data/inst
system.cpu.itb.stage2_mmu.stage2_tlb.walker.power_state.pwrStateResidencyTicks::UNDEFINED 305023177200                       # Cumulative time (in ticks) in various power states
system.cpu.itb.walker.walks                         0                       # Table walker walks requested
system.cpu.itb.walker.requestOrigin_Requested::Data            0                       # Table walker requests started/completed, data/inst
system.cpu.itb.walker.requestOrigin_Requested::Inst            0                       # Table walker requests started/completed, data/inst
system.cpu.itb.walker.requestOrigin_Requested::total            0                       # Table walker requests started/completed, data/inst
system.cpu.itb.walker.requestOrigin_Completed::Data            0                       # Table walker requests started/completed, data/inst
system.cpu.itb.walker.requestOrigin_Completed::Inst            0                       # Table walker requests started/completed, data/inst
[...]
system.switch_cpus.fetch.branches            16773228                       # Number of branches that fetch encountered
system.switch_cpus.fetch.predictedBranches     10171051                       # Number of branches that fetch has predicted taken
system.switch_cpus.fetch.cycles              58645779                       # Number of cycles fetch has run and was not squashing or blocked
system.switch_cpus.fetch.squashCycles          308046                       # Number of cycles fetch has spent squashing
system.switch_cpus.fetch.miscStallCycles            2                       # Number of cycles fetch has spent waiting on interrupts,or bad addresses, or out of MSHRs
system.switch_cpus.fetch.icacheWaitRetryStallCycles           58                       # Number of stall cycles due to full MSHR
system.switch_cpus.fetch.cacheLines          12758310                       # Number of cache lines fetched
system.switch_cpus.fetch.icacheSquashes            20                       # Number of outstanding Icache misses that were squashed
system.switch_cpus.fetch.nisnDist::samples     58922105                       # Number of instructions fetched each cycle (Total)
system.switch_cpus.fetch.nisnDist::mean      2.068574                       # Number of instructions fetched each cycle (Total)
system.switch_cpus.fetch.nisnDist::stdev     2.889062                       # Number of instructions fetched each cycle (Total)
system.switch_cpus.fetch.nisnDist::underflows            0      0.00%      0.00% # Number of instructions fetched each cycle (Total)
system.switch_cpus.fetch.nisnDist::0         34243869     58.12%     58.12% # Number of instructions fetched each cycle (Total)
system.switch_cpus.fetch.nisnDist::1          2567117      4.36%     62.47% # Number of instructions fetched each cycle (Total)
system.switch_cpus.fetch.nisnDist::2          1809191      3.07%     65.54% # Number of instructions fetched each cycle (Total)
system.switch_cpus.fetch.nisnDist::3          3360947      5.70%     71.25% # Number of instructions fetched each cycle (Total)
system.switch_cpus.fetch.nisnDist::4          4686819      7.95%     79.20% # Number of instructions fetched each cycle (Total)
system.switch_cpus.fetch.nisnDist::5          1071250      1.82%     81.02% # Number of instructions fetched each cycle (Total)
system.switch_cpus.fetch.nisnDist::6          2829173      4.80%     85.82% # Number of instructions fetched each cycle (Total)
system.switch_cpus.fetch.nisnDist::7          2292055      3.89%     89.71% # Number of instructions fetched each cycle (Total)
system.switch_cpus.fetch.nisnDist::8          6061684     10.29%    100.00% # Number of instructions fetched each cycle (Total)
system.switch_cpus.fetch.nisnDist::overflows            0      0.00%    100.00% # Number of instructions fetched each cycle (Total)
system.switch_cpus.fetch.nisnDist::min_value            0                       # Number of instructions fetched each cycle (Total)
system.switch_cpus.fetch.nisnDist::max_value            8                       # Number of instructions fetched each cycle (Total)
system.switch_cpus.fetch.nisnDist::total     58922105                       # Number of instructions fetched each cycle (Total)
system.switch_cpus.fetch.branchRate          0.284664                       # Number of branch fetches per cycle
system.switch_cpus.fetch.rate                2.068209                       # Number of inst fetches per cycle
system.switch_cpus.itb.instHits                     0                       # ITB inst hits
system.switch_cpus.itb.instMisses                   0                       # ITB inst misses
system.switch_cpus.itb.readHits                     0                       # DTB read hits
system.switch_cpus.itb.readMisses                   0                       # DTB read misses
system.switch_cpus.itb.writeHits                    0                       # DTB write hits
system.switch_cpus.itb.writeMisses                  0                       # DTB write misses
system.switch_cpus.itb.inserts                      0                       # Number of times an entry is inserted into the TLB
system.switch_cpus.itb.flushTlb                     0                       # Number of times complete TLB was flushed
system.switch_cpus.itb.flushTlbMva                  0                       # Number of times TLB was flushed by MVA
system.switch_cpus.itb.flushTlbMvaAsid              0                       # Number of times TLB was flushed by MVA & ASID
system.switch_cpus.itb.flushTlbAsid                 0                       # Number of times TLB was flushed by ASID
system.switch_cpus.itb.flushedEntries               0                       # Number of entries that have been flushed from TLB
system.switch_cpus.itb.alignFaults                  0                       # Number of TLB faults due to alignment restrictions
system.switch_cpus.itb.prefetchFaults               0                       # Number of TLB faults due to prefetch
system.switch_cpus.itb.domainFaults                 0                       # Number of TLB faults due to domain restrictions
system.switch_cpus.itb.permsFaults                  0                       # Number of TLB faults due to permissions restrictions
system.switch_cpus.itb.readAccesses                 0                       # DTB read accesses
system.switch_cpus.itb.writeAccesses                0                       # DTB write accesses
system.switch_cpus.itb.instAccesses                 0                       # ITB inst accesses
system.switch_cpus.itb.hits                         0                       # Total TLB (inst and data) hits
system.switch_cpus.itb.misses                       0                       # Total TLB (inst and data) misses
system.switch_cpus.itb.accesses                     0                       # Total TLB (inst and data) accesses
system.switch_cpus.itb.stage2_mmu.stage2_tlb.instHits            0                       # ITB inst hits
system.switch_cpus.itb.stage2_mmu.stage2_tlb.instMisses            0                       # ITB inst misses
system.switch_cpus.itb.stage2_mmu.stage2_tlb.readHits            0                       # DTB read hits
system.switch_cpus.itb.stage2_mmu.stage2_tlb.readMisses            0                       # DTB read misses
system.switch_cpus.itb.stage2_mmu.stage2_tlb.writeHits            0                       # DTB write hits
system.switch_cpus.itb.stage2_mmu.stage2_tlb.writeMisses            0                       # DTB write misses
system.switch_cpus.itb.stage2_mmu.stage2_tlb.inserts            0                       # Number of times an entry is inserted into the TLB
system.switch_cpus.itb.stage2_mmu.stage2_tlb.flushTlb            0                       # Number of times complete TLB was flushed
system.switch_cpus.itb.stage2_mmu.stage2_tlb.flushTlbMva            0                       # Number of times TLB was flushed by MVA
system.switch_cpus.itb.stage2_mmu.stage2_tlb.flushTlbMvaAsid            0                       # Number of times TLB was flushed by MVA & ASID
system.switch_cpus.itb.stage2_mmu.stage2_tlb.flushTlbAsid            0                       # Number of times TLB was flushed by ASID
system.switch_cpus.itb.stage2_mmu.stage2_tlb.flushedEntries            0                       # Number of entries that have been flushed from TLB
system.switch_cpus.itb.stage2_mmu.stage2_tlb.alignFaults            0                       # Number of TLB faults due to alignment restrictions
system.switch_cpus.itb.stage2_mmu.stage2_tlb.prefetchFaults            0                       # Number of TLB faults due to prefetch
system.switch_cpus.itb.stage2_mmu.stage2_tlb.domainFaults            0                       # Number of TLB faults due to domain restrictions
system.switch_cpus.itb.stage2_mmu.stage2_tlb.permsFaults            0                       # Number of TLB faults due to permissions restrictions
system.switch_cpus.itb.stage2_mmu.stage2_tlb.readAccesses            0                       # DTB read accesses
system.switch_cpus.itb.stage2_mmu.stage2_tlb.writeAccesses            0                       # DTB write accesses
system.switch_cpus.itb.stage2_mmu.stage2_tlb.instAccesses            0                       # ITB inst accesses
system.switch_cpus.itb.stage2_mmu.stage2_tlb.hits            0                       # Total TLB (inst and data) hits
system.switch_cpus.itb.stage2_mmu.stage2_tlb.misses            0                       # Total TLB (inst and data) misses
system.switch_cpus.itb.stage2_mmu.stage2_tlb.accesses            0                       # Total TLB (inst and data) accesses
system.switch_cpus.itb.stage2_mmu.stage2_tlb.walker.walks            0                       # Table walker walks requested
system.switch_cpus.itb.stage2_mmu.stage2_tlb.walker.requestOrigin_Requested::Data            0                       # Table walker requests started/completed, data/inst
system.switch_cpus.itb.stage2_mmu.stage2_tlb.walker.requestOrigin_Requested::Inst            0                       # Table walker requests started/completed, data/inst
system.switch_cpus.itb.stage2_mmu.stage2_tlb.walker.requestOrigin_Requested::total            0                       # Table walker requests started/completed, data/inst
system.switch_cpus.itb.stage2_mmu.stage2_tlb.walker.requestOrigin_Completed::Data            0                       # Table walker requests started/completed, data/inst
system.switch_cpus.itb.stage2_mmu.stage2_tlb.walker.requestOrigin_Completed::Inst            0                       # Table walker requests started/completed, data/inst
system.switch_cpus.itb.stage2_mmu.stage2_tlb.walker.requestOrigin_Completed::total            0                       # Table walker requests started/completed, data/inst
system.switch_cpus.itb.stage2_mmu.stage2_tlb.walker.requestOrigin::total            0                       # Table walker requests started/completed, data/inst
system.switch_cpus.itb.stage2_mmu.stage2_tlb.walker.power_state.pwrStateResidencyTicks::UNDEFINED  23569190000                       # Cumulative time (in ticks) in various power states
system.switch_cpus.itb.walker.walks                 0                       # Table walker walks requested
system.switch_cpus.itb.walker.requestOrigin_Requested::Data            0                       # Table walker requests started/completed, data/inst
system.switch_cpus.itb.walker.requestOrigin_Requested::Inst            0                       # Table walker requests started/completed, data/inst
system.switch_cpus.itb.walker.requestOrigin_Requested::total            0                       # Table walker requests started/completed, data/inst
system.switch_cpus.itb.walker.requestOrigin_Completed::Data            0                       # Table walker requests started/completed, data/inst
system.switch_cpus.itb.walker.requestOrigin_Completed::Inst            0                       # Table walker requests started/completed, data/inst
system.switch_cpus.itb.walker.requestOrigin_Completed::total            0                       # Table walker requests started/completed, data/inst
system.switch_cpus.itb.walker.requestOrigin::total            0                       # Table walker requests started/completed, data/inst
system.switch_cpus.itb.walker.power_state.pwrStateResidencyTicks::UNDEFINED  23569190000                       # Cumulative time (in ticks) in various power states
system.switch_cpus.lsq0.forwLoads            15615601                       # Number of loads that had data forwarded from stores
system.switch_cpus.lsq0.squashedLoads         5748111                       # Number of loads squashed
system.switch_cpus.lsq0.ignoredResponses          310                       # Number of memory responses ignored because the instruction is squashed
system.switch_cpus.lsq0.memOrderViolation         3016                       # Number of memory ordering violations
system.switch_cpus.lsq0.squashedStores        1073324                       # Number of stores squashed
system.switch_cpus.lsq0.rescheduledLoads          115                       # Number of loads that were rescheduled
system.switch_cpus.lsq0.blockedByCache            340                       # Number of times an access to memory failed due to the cache being blocked
system.switch_cpus.power_state.pwrStateResidencyTicks::OFF  23569190000                       # Cumulative time (in ticks) in various power states
system.switch_cpus.rename.squashCycles         153976                       # Number of cycles rename is squashing
system.switch_cpus.rename.idleCycles          9241796                       # Number of cycles rename is idle
system.switch_cpus.rename.blockCycles        22344013                       # Number of cycles rename is blocking
system.switch_cpus.rename.serializeStallCycles        16549                       # count of cycles rename stalledfor serializing inst
system.switch_cpus.rename.runCycles          10817491                       # Number of cycles rename is running
system.switch_cpus.rename.unblockCycles      16348280                       # Number of cycles rename is unblocking
system.switch_cpus.rename.renamedInsts      113839005                       # Number of instructions processed by rename
system.switch_cpus.rename.squashedInsts        357468                       # Number of squashed instructions processed by rename
system.switch_cpus.rename.ROBFullEvents          5513                       # Number of times rename has blocked due to ROB full
system.switch_cpus.rename.IQFullEvents        7644058                       # Number of times rename has blocked due to IQ full
system.switch_cpus.rename.SQFullEvents           8635                       # Number of times rename has blocked due to SQ full
system.switch_cpus.rename.fullRegistersEvents      8672332                       # Number of times there has been no free registers
system.switch_cpus.rename.renamedOperands    137913131                       # Number of destination operands rename has renamed
system.switch_cpus.rename.lookups           167013336                       # Number of register rename lookups that rename has made
system.switch_cpus.rename.intLookups        119998524                       # Number of integer rename lookups
system.switch_cpus.rename.vecLookups              494                       # Number of vector rename lookups
system.switch_cpus.rename.committedMaps     121899304                       # Number of HB maps that are committed
system.switch_cpus.rename.undoneMaps         16013822                       # Number of HB maps that are undone due to squashing
system.switch_cpus.rename.serializing             545                       # count of serializing insts renamed
system.switch_cpus.rename.tempSerializing           43                       # count of temporary serializing insts renamed
system.switch_cpus.rename.skidInsts          42925602                       # count of insts added to the skid buffer
system.switch_cpus.rob.reads                147396494                       # The number of ROB reads
system.switch_cpus.rob.writes               229699688                       # The number of ROB writes
system.switch_cpus.thread_0.numInsts        100000000                       # Number of Instructions committed
system.switch_cpus.thread_0.numOps          100001745                       # Number of Ops committed
system.switch_cpus.thread_0.numMemRefs              0                       # Number of Memory References
system.tol2bus.trans_dist::ReadResp           1879250                       # Transaction distribution
system.tol2bus.trans_dist::WritebackDirty       957442                       # Transaction distribution
system.tol2bus.trans_dist::WritebackClean       984519                       # Transaction distribution
system.tol2bus.trans_dist::CleanEvict          148988                       # Transaction distribution
system.tol2bus.trans_dist::HardPFReq           132230                       # Transaction distribution
system.tol2bus.trans_dist::ReadExReq            47523                       # Transaction distribution
system.tol2bus.trans_dist::ReadExResp           47523                       # Transaction distribution
system.tol2bus.trans_dist::ReadCleanReq            15                       # Transaction distribution
system.tol2bus.trans_dist::ReadSharedReq      1879234                       # Transaction distribution
system.tol2bus.pkt_count_system.cpu.icache.mem_side_port::system.l2.cpu_side_port           30                       # Packet count per connected requestor and responder (bytes)
system.tol2bus.pkt_count_system.cpu.dcache.mem_side_port::system.l2.cpu_side_port      5780273                       # Packet count per connected requestor and responder (bytes)
system.tol2bus.pkt_count::total               5780303                       # Packet count per connected requestor and responder (bytes)
system.tol2bus.pkt_size_system.cpu.icache.mem_side_port::system.l2.cpu_side_port         1920                       # Cumulative packet size per connected requestor and responder (bytes)
system.tol2bus.pkt_size_system.cpu.dcache.mem_side_port::system.l2.cpu_side_port    493250048                       # Cumulative packet size per connected requestor and responder (bytes)
system.tol2bus.pkt_size::total              493251968                       # Cumulative packet size per connected requestor and responder (bytes)
system.tol2bus.snoops                          296421                       # Total snoops (count)
system.tol2bus.snoopTraffic                   1945984                       # Total snoop traffic (bytes)
system.tol2bus.snoop_fanout::samples          2223193                       # Request fanout histogram
system.tol2bus.snoop_fanout::mean            0.001336                       # Request fanout histogram
system.tol2bus.snoop_fanout::stdev           0.036526                       # Request fanout histogram
system.tol2bus.snoop_fanout::underflows             0      0.00%      0.00% # Request fanout histogram
system.tol2bus.snoop_fanout::0                2220223     99.87%     99.87% # Request fanout histogram
system.tol2bus.snoop_fanout::1                   2970      0.13%    100.00% # Request fanout histogram
system.tol2bus.snoop_fanout::2                      0      0.00%    100.00% # Request fanout histogram
system.tol2bus.snoop_fanout::3                      0      0.00%    100.00% # Request fanout histogram
system.tol2bus.snoop_fanout::4                      0      0.00%    100.00% # Request fanout histogram
system.tol2bus.snoop_fanout::overflows              0      0.00%    100.00% # Request fanout histogram
system.tol2bus.snoop_fanout::min_value              0                       # Request fanout histogram
system.tol2bus.snoop_fanout::max_value              1                       # Request fanout histogram
system.tol2bus.snoop_fanout::total            2223193                       # Request fanout histogram
system.tol2bus.power_state.pwrStateResidencyTicks::UNDEFINED  23569190000                       # Cumulative time (in ticks) in various power states
system.tol2bus.reqLayer0.occupancy         4624224800                       # Layer occupancy (ticks)
system.tol2bus.reqLayer0.utilization             19.6                       # Layer utilization (%)
system.tol2bus.respLayer0.occupancy             30000                       # Layer occupancy (ticks)
system.tol2bus.respLayer0.utilization             0.0                       # Layer utilization (%)
system.tol2bus.respLayer1.occupancy        3853516000                       # Layer occupancy (ticks)
system.tol2bus.respLayer1.utilization            16.3                       # Layer utilization (%)
system.voltage_domain.voltage                       1                       # Voltage in Volts

---------- End Simulation Statistics   ----------
