
---------- Begin Simulation Statistics ----------
final_tick                               1728176012000                       # Number of ticks from beginning of simulation (restored from checkpoints and never reset)
host_inst_rate                                 290375                       # Simulator instruction rate (inst/s)
host_mem_usage                               16985488                       # Number of bytes of host memory used
host_op_rate                                   290370                       # Simulator op (including micro ops) rate (op/s)
host_seconds                                     3.44                       # Real time elapsed on the host
host_tick_rate                              101875632                       # Simulator tick rate (ticks/s)
sim_freq                                 1000000000000                       # Frequency of simulated ticks
sim_insts                                     1000027                       # Number of instructions simulated
sim_ops                                       1000027                       # Number of ops (including micro ops) simulated
sim_seconds                                  0.000351                       # Number of seconds simulated
sim_ticks                                   350858500                       # Number of ticks simulated
system.cpu.Branches                                 2                       # Number of branches fetched
system.cpu.committedInsts                          24                       # Number of instructions committed
system.cpu.committedOps                            24                       # Number of ops (including micro ops) committed
system.cpu.idle_fraction                            0                       # Percentage of idle cycles
system.cpu.not_idle_fraction                        1                       # Percentage of non-idle cycles
system.cpu.numCycles                               24                       # number of cpu cycles simulated
system.cpu.numWorkItemsCompleted                    0                       # number of work items this cpu completed
system.cpu.numWorkItemsStarted                      0                       # number of work items this cpu started
system.cpu.num_busy_cycles                         24                       # Number of busy cycles
system.cpu.num_cc_register_reads                    6                       # number of times the CC registers were read
system.cpu.num_cc_register_writes                   6                       # number of times the CC registers were written
system.cpu.num_conditional_control_insts            2                       # number of instructions that are conditional controls
system.cpu.num_fp_alu_accesses                      0                       # Number of float alu accesses
system.cpu.num_fp_insts                             0                       # number of float instructions
system.cpu.num_fp_register_reads                    0                       # number of times the floating registers were read
system.cpu.num_fp_register_writes                   0                       # number of times the floating registers were written
system.cpu.num_func_calls                           0                       # number of times a function call or return occured
system.cpu.num_idle_cycles                          0                       # Number of idle cycles
system.cpu.num_int_alu_accesses                    22                       # Number of integer alu accesses
system.cpu.num_int_insts                           22                       # number of integer instructions
system.cpu.num_int_register_reads                  28                       # number of times the integer registers were read
system.cpu.num_int_register_writes                 19                       # number of times the integer registers were written
system.cpu.num_load_insts                          10                       # Number of load instructions
system.cpu.num_mem_refs                            13                       # number of memory refs
system.cpu.num_store_insts                          3                       # Number of store instructions
system.cpu.num_vec_alu_accesses                     0                       # Number of vector alu accesses
system.cpu.num_vec_insts                            0                       # number of vector instructions
system.cpu.num_vec_register_reads                   0                       # number of times the vector registers were read
system.cpu.num_vec_register_writes                  0                       # number of times the vector registers were written
system.cpu.op_class::No_OpClass                     0      0.00%      0.00% # Class of executed instruction
system.cpu.op_class::IntAlu                        11     45.83%     45.83% # Class of executed instruction
system.cpu.op_class::IntMult                        0      0.00%     45.83% # Class of executed instruction
system.cpu.op_class::IntDiv                         0      0.00%     45.83% # Class of executed instruction
system.cpu.op_class::FloatAdd                       0      0.00%     45.83% # Class of executed instruction
system.cpu.op_class::FloatCmp                       0      0.00%     45.83% # Class of executed instruction
system.cpu.op_class::FloatCvt                       0      0.00%     45.83% # Class of executed instruction
system.cpu.op_class::FloatMult                      0      0.00%     45.83% # Class of executed instruction
system.cpu.op_class::FloatMultAcc                   0      0.00%     45.83% # Class of executed instruction
system.cpu.op_class::FloatDiv                       0      0.00%     45.83% # Class of executed instruction
system.cpu.op_class::FloatMisc                      0      0.00%     45.83% # Class of executed instruction
system.cpu.op_class::FloatSqrt                      0      0.00%     45.83% # Class of executed instruction
system.cpu.op_class::SimdAdd                        0      0.00%     45.83% # Class of executed instruction
system.cpu.op_class::SimdAddAcc                     0      0.00%     45.83% # Class of executed instruction
system.cpu.op_class::SimdAlu                        0      0.00%     45.83% # Class of executed instruction
system.cpu.op_class::SimdCmp                        0      0.00%     45.83% # Class of executed instruction
system.cpu.op_class::SimdCvt                        0      0.00%     45.83% # Class of executed instruction
system.cpu.op_class::SimdMisc                       0      0.00%     45.83% # Class of executed instruction
system.cpu.op_class::SimdMult                       0      0.00%     45.83% # Class of executed instruction
system.cpu.op_class::SimdMultAcc                    0      0.00%     45.83% # Class of executed instruction
system.cpu.op_class::SimdShift                      0      0.00%     45.83% # Class of executed instruction
system.cpu.op_class::SimdShiftAcc                   0      0.00%     45.83% # Class of executed instruction
system.cpu.op_class::SimdDiv                        0      0.00%     45.83% # Class of executed instruction
system.cpu.op_class::SimdSqrt                       0      0.00%     45.83% # Class of executed instruction
system.cpu.op_class::SimdFloatAdd                   0      0.00%     45.83% # Class of executed instruction
system.cpu.op_class::SimdFloatAlu                   0      0.00%     45.83% # Class of executed instruction
system.cpu.op_class::SimdFloatCmp                   0      0.00%     45.83% # Class of executed instruction
system.cpu.op_class::SimdFloatCvt                   0      0.00%     45.83% # Class of executed instruction
system.cpu.op_class::SimdFloatDiv                   0      0.00%     45.83% # Class of executed instruction
system.cpu.op_class::SimdFloatMisc                  0      0.00%     45.83% # Class of executed instruction
system.cpu.op_class::SimdFloatMult                  0      0.00%     45.83% # Class of executed instruction
system.cpu.op_class::SimdFloatMultAcc               0      0.00%     45.83% # Class of executed instruction
system.cpu.op_class::SimdFloatSqrt                  0      0.00%     45.83% # Class of executed instruction
system.cpu.op_class::SimdReduceAdd                  0      0.00%     45.83% # Class of executed instruction
system.cpu.op_class::SimdReduceAlu                  0      0.00%     45.83% # Class of executed instruction
system.cpu.op_class::SimdReduceCmp                  0      0.00%     45.83% # Class of executed instruction
system.cpu.op_class::SimdFloatReduceAdd             0      0.00%     45.83% # Class of executed instruction
system.cpu.op_class::SimdFloatReduceCmp             0      0.00%     45.83% # Class of executed instruction
system.cpu.op_class::SimdAes                        0      0.00%     45.83% # Class of executed instruction
system.cpu.op_class::SimdAesMix                     0      0.00%     45.83% # Class of executed instruction
system.cpu.op_class::SimdSha1Hash                   0      0.00%     45.83% # Class of executed instruction
system.cpu.op_class::SimdSha1Hash2                  0      0.00%     45.83% # Class of executed instruction
system.cpu.op_class::SimdSha256Hash                 0      0.00%     45.83% # Class of executed instruction
system.cpu.op_class::SimdSha256Hash2                0      0.00%     45.83% # Class of executed instruction
system.cpu.op_class::SimdShaSigma2                  0      0.00%     45.83% # Class of executed instruction
system.cpu.op_class::SimdShaSigma3                  0      0.00%     45.83% # Class of executed instruction
system.cpu.op_class::SimdPredAlu                    0      0.00%     45.83% # Class of executed instruction
system.cpu.op_class::MemRead                       10     41.67%     87.50% # Class of executed instruction
system.cpu.op_class::MemWrite                       3     12.50%    100.00% # Class of executed instruction
system.cpu.op_class::FloatMemRead                   0      0.00%    100.00% # Class of executed instruction
system.cpu.op_class::FloatMemWrite                  0      0.00%    100.00% # Class of executed instruction
system.cpu.op_class::IprAccess                      0      0.00%    100.00% # Class of executed instruction
system.cpu.op_class::InstPrefetch                   0      0.00%    100.00% # Class of executed instruction
system.cpu.op_class::total                         24                       # Class of executed instruction
system.cpu.workload.numSyscalls                     0                       # Number of system calls
system.membus.snoop_filter.hit_multi_requests            0                       # Number of requests hitting in the snoop filter with multiple (>1) holders of the requested data.
system.membus.snoop_filter.hit_multi_snoops            0                       # Number of snoops hitting in the snoop filter with multiple (>1) holders of the requested data.
system.membus.snoop_filter.hit_single_requests            0                       # Number of requests hitting in the snoop filter with a single holder of the requested data.
system.membus.snoop_filter.hit_single_snoops            0                       # Number of snoops hitting in the snoop filter with a single holder of the requested data.
system.membus.snoop_filter.tot_requests          1470                       # Total number of requests made to the snoop filter.
system.membus.snoop_filter.tot_snoops               0                       # Total number of snoops made to the snoop filter.
system.switch_cpus.cc_regfile_reads            376968                       # number of cc regfile reads
system.switch_cpus.cc_regfile_writes           382659                       # number of cc regfile writes
system.switch_cpus.committedInsts             1000003                       # Number of Instructions Simulated
system.switch_cpus.committedOps               1000003                       # Number of Ops (including micro ops) Simulated
system.switch_cpus.cpi                       0.877118                       # CPI: Cycles Per Instruction
system.switch_cpus.cpi_total                 0.877118                       # CPI: Total CPI of All Threads
system.switch_cpus.idleCycles                    1103                       # Total number of cycles that the CPU has spent unscheduled due to idling
system.switch_cpus.iew.branchMispredicts         6152                       # Number of branch mispredicts detected at execute
system.switch_cpus.iew.exec_branches           146013                       # Number of branches executed
system.switch_cpus.iew.exec_nop                   236                       # number of nop insts executed
system.switch_cpus.iew.exec_rate             1.336989                       # Inst execution rate
system.switch_cpus.iew.exec_refs               619959                       # number of memory reference insts executed
system.switch_cpus.iew.exec_stores             105777                       # Number of stores executed
system.switch_cpus.iew.exec_swp                     0                       # number of swp insts executed
system.switch_cpus.iew.iewBlockCycles          132085                       # Number of cycles IEW is blocking
system.switch_cpus.iew.iewDispLoadInsts        663667                       # Number of dispatched load instructions
system.switch_cpus.iew.iewDispNonSpecInsts            0                       # Number of dispatched non-speculative instructions
system.switch_cpus.iew.iewDispSquashedInsts            0                       # Number of squashed instructions skipped by dispatch
system.switch_cpus.iew.iewDispStoreInsts       138448                       # Number of dispatched store instructions
system.switch_cpus.iew.iewDispatchedInsts      1542295                       # Number of instructions dispatched to IQ
system.switch_cpus.iew.iewExecLoadInsts        514182                       # Number of load instructions executed
system.switch_cpus.iew.iewExecSquashedInsts        11106                       # Number of squashed instructions skipped in execute
system.switch_cpus.iew.iewExecutedInsts       1172701                       # Number of executed instructions
system.switch_cpus.iew.iewIQFullEvents              0                       # Number of times the IQ has become full, causing a stall
system.switch_cpus.iew.iewIdleCycles                0                       # Number of cycles IEW is idle
system.switch_cpus.iew.iewLSQFullEvents             0                       # Number of times the LSQ has become full, causing a stall
system.switch_cpus.iew.iewSquashCycles           5311                       # Number of cycles IEW is squashing
system.switch_cpus.iew.iewUnblockCycles             0                       # Number of cycles IEW is unblocking
system.switch_cpus.iew.memOrderViolationEvents           85                       # Number of memory order violations
system.switch_cpus.iew.predictedNotTakenIncorrect         3962                       # Number of branches that were predicted not taken incorrectly
system.switch_cpus.iew.predictedTakenIncorrect         2190                       # Number of branches that were predicted taken incorrectly
system.switch_cpus.iew.wb_consumers           1167091                       # num instructions consuming a value
system.switch_cpus.iew.wb_count               1165899                       # cumulative count of insts written-back
system.switch_cpus.iew.wb_fanout             0.779696                       # average fanout of values written-back
system.switch_cpus.iew.wb_producers            909976                       # num instructions producing a value
system.switch_cpus.iew.wb_rate               1.329234                       # insts written-back per cycle
system.switch_cpus.iew.wb_sent                1170214                       # cumulative count of insts sent to commit
system.switch_cpus.int_regfile_reads          1294909                       # number of integer regfile reads
system.switch_cpus.int_regfile_writes          918485                       # number of integer regfile writes
system.switch_cpus.ipc                       1.140097                       # IPC: Instructions Per Cycle
system.switch_cpus.ipc_total                 1.140097                       # IPC: Total IPC of All Threads
system.switch_cpus.iq.FU_type_0::No_OpClass          107      0.01%      0.01% # Type of FU issued
system.switch_cpus.iq.FU_type_0::IntAlu        552706     46.69%     46.70% # Type of FU issued
system.switch_cpus.iq.FU_type_0::IntMult            0      0.00%     46.70% # Type of FU issued
system.switch_cpus.iq.FU_type_0::IntDiv             0      0.00%     46.70% # Type of FU issued
system.switch_cpus.iq.FU_type_0::FloatAdd            0      0.00%     46.70% # Type of FU issued
system.switch_cpus.iq.FU_type_0::FloatCmp            0      0.00%     46.70% # Type of FU issued
system.switch_cpus.iq.FU_type_0::FloatCvt            0      0.00%     46.70% # Type of FU issued
system.switch_cpus.iq.FU_type_0::FloatMult            0      0.00%     46.70% # Type of FU issued
system.switch_cpus.iq.FU_type_0::FloatMultAcc            0      0.00%     46.70% # Type of FU issued
system.switch_cpus.iq.FU_type_0::FloatDiv            0      0.00%     46.70% # Type of FU issued
system.switch_cpus.iq.FU_type_0::FloatMisc            0      0.00%     46.70% # Type of FU issued
system.switch_cpus.iq.FU_type_0::FloatSqrt            0      0.00%     46.70% # Type of FU issued
system.switch_cpus.iq.FU_type_0::SimdAdd            0      0.00%     46.70% # Type of FU issued
system.switch_cpus.iq.FU_type_0::SimdAddAcc            0      0.00%     46.70% # Type of FU issued
system.switch_cpus.iq.FU_type_0::SimdAlu            0      0.00%     46.70% # Type of FU issued
system.switch_cpus.iq.FU_type_0::SimdCmp            0      0.00%     46.70% # Type of FU issued
system.switch_cpus.iq.FU_type_0::SimdCvt            0      0.00%     46.70% # Type of FU issued
system.switch_cpus.iq.FU_type_0::SimdMisc            0      0.00%     46.70% # Type of FU issued
system.switch_cpus.iq.FU_type_0::SimdMult            0      0.00%     46.70% # Type of FU issued
system.switch_cpus.iq.FU_type_0::SimdMultAcc            0      0.00%     46.70% # Type of FU issued
system.switch_cpus.iq.FU_type_0::SimdShift            0      0.00%     46.70% # Type of FU issued
system.switch_cpus.iq.FU_type_0::SimdShiftAcc            0      0.00%     46.70% # Type of FU issued
system.switch_cpus.iq.FU_type_0::SimdDiv            0      0.00%     46.70% # Type of FU issued
system.switch_cpus.iq.FU_type_0::SimdSqrt            0      0.00%     46.70% # Type of FU issued
system.switch_cpus.iq.FU_type_0::SimdFloatAdd            0      0.00%     46.70% # Type of FU issued
system.switch_cpus.iq.FU_type_0::SimdFloatAlu            0      0.00%     46.70% # Type of FU issued
system.switch_cpus.iq.FU_type_0::SimdFloatCmp            0      0.00%     46.70% # Type of FU issued
system.switch_cpus.iq.FU_type_0::SimdFloatCvt            0      0.00%     46.70% # Type of FU issued
system.switch_cpus.iq.FU_type_0::SimdFloatDiv            0      0.00%     46.70% # Type of FU issued
system.switch_cpus.iq.FU_type_0::SimdFloatMisc            0      0.00%     46.70% # Type of FU issued
system.switch_cpus.iq.FU_type_0::SimdFloatMult            0      0.00%     46.70% # Type of FU issued
system.switch_cpus.iq.FU_type_0::SimdFloatMultAcc            0      0.00%     46.70% # Type of FU issued
system.switch_cpus.iq.FU_type_0::SimdFloatSqrt            0      0.00%     46.70% # Type of FU issued
system.switch_cpus.iq.FU_type_0::SimdReduceAdd            0      0.00%     46.70% # Type of FU issued
system.switch_cpus.iq.FU_type_0::SimdReduceAlu            0      0.00%     46.70% # Type of FU issued
system.switch_cpus.iq.FU_type_0::SimdReduceCmp            0      0.00%     46.70% # Type of FU issued
system.switch_cpus.iq.FU_type_0::SimdFloatReduceAdd            0      0.00%     46.70% # Type of FU issued
system.switch_cpus.iq.FU_type_0::SimdFloatReduceCmp            0      0.00%     46.70% # Type of FU issued
system.switch_cpus.iq.FU_type_0::SimdAes            0      0.00%     46.70% # Type of FU issued
system.switch_cpus.iq.FU_type_0::SimdAesMix            0      0.00%     46.70% # Type of FU issued
system.switch_cpus.iq.FU_type_0::SimdSha1Hash            0      0.00%     46.70% # Type of FU issued
system.switch_cpus.iq.FU_type_0::SimdSha1Hash2            0      0.00%     46.70% # Type of FU issued
system.switch_cpus.iq.FU_type_0::SimdSha256Hash            0      0.00%     46.70% # Type of FU issued
system.switch_cpus.iq.FU_type_0::SimdSha256Hash2            0      0.00%     46.70% # Type of FU issued
system.switch_cpus.iq.FU_type_0::SimdShaSigma2            0      0.00%     46.70% # Type of FU issued
system.switch_cpus.iq.FU_type_0::SimdShaSigma3            0      0.00%     46.70% # Type of FU issued
system.switch_cpus.iq.FU_type_0::SimdPredAlu            0      0.00%     46.70% # Type of FU issued
system.switch_cpus.iq.FU_type_0::MemRead       522786     44.16%     90.86% # Type of FU issued
system.switch_cpus.iq.FU_type_0::MemWrite       108211      9.14%    100.00% # Type of FU issued
system.switch_cpus.iq.FU_type_0::FloatMemRead            0      0.00%    100.00% # Type of FU issued
system.switch_cpus.iq.FU_type_0::FloatMemWrite            0      0.00%    100.00% # Type of FU issued
system.switch_cpus.iq.FU_type_0::IprAccess            0      0.00%    100.00% # Type of FU issued
system.switch_cpus.iq.FU_type_0::InstPrefetch            0      0.00%    100.00% # Type of FU issued
system.switch_cpus.iq.FU_type_0::total        1183810                       # Type of FU issued
system.switch_cpus.iq.fp_alu_accesses               0                       # Number of floating point alu accesses
system.switch_cpus.iq.fp_inst_queue_reads            0                       # Number of floating instruction queue reads
system.switch_cpus.iq.fp_inst_queue_wakeup_accesses            0                       # Number of floating instruction queue wakeup accesses
system.switch_cpus.iq.fp_inst_queue_writes            0                       # Number of floating instruction queue writes
system.switch_cpus.iq.fu_busy_cnt              547396                       # FU busy when requested
system.switch_cpus.iq.fu_busy_rate           0.462402                       # FU busy rate (busy events/executed inst)
system.switch_cpus.iq.fu_full::No_OpClass            0      0.00%      0.00% # attempts to use FU when none available
system.switch_cpus.iq.fu_full::IntAlu           31774      5.80%      5.80% # attempts to use FU when none available
system.switch_cpus.iq.fu_full::IntMult              0      0.00%      5.80% # attempts to use FU when none available
system.switch_cpus.iq.fu_full::IntDiv               0      0.00%      5.80% # attempts to use FU when none available
system.switch_cpus.iq.fu_full::FloatAdd             0      0.00%      5.80% # attempts to use FU when none available
system.switch_cpus.iq.fu_full::FloatCmp             0      0.00%      5.80% # attempts to use FU when none available
system.switch_cpus.iq.fu_full::FloatCvt             0      0.00%      5.80% # attempts to use FU when none available
system.switch_cpus.iq.fu_full::FloatMult            0      0.00%      5.80% # attempts to use FU when none available
system.switch_cpus.iq.fu_full::FloatMultAcc            0      0.00%      5.80% # attempts to use FU when none available
system.switch_cpus.iq.fu_full::FloatDiv             0      0.00%      5.80% # attempts to use FU when none available
system.switch_cpus.iq.fu_full::FloatMisc            0      0.00%      5.80% # attempts to use FU when none available
system.switch_cpus.iq.fu_full::FloatSqrt            0      0.00%      5.80% # attempts to use FU when none available
system.switch_cpus.iq.fu_full::SimdAdd              0      0.00%      5.80% # attempts to use FU when none available
system.switch_cpus.iq.fu_full::SimdAddAcc            0      0.00%      5.80% # attempts to use FU when none available
system.switch_cpus.iq.fu_full::SimdAlu              0      0.00%      5.80% # attempts to use FU when none available
system.switch_cpus.iq.fu_full::SimdCmp              0      0.00%      5.80% # attempts to use FU when none available
system.switch_cpus.iq.fu_full::SimdCvt              0      0.00%      5.80% # attempts to use FU when none available
system.switch_cpus.iq.fu_full::SimdMisc             0      0.00%      5.80% # attempts to use FU when none available
system.switch_cpus.iq.fu_full::SimdMult             0      0.00%      5.80% # attempts to use FU when none available
system.switch_cpus.iq.fu_full::SimdMultAcc            0      0.00%      5.80% # attempts to use FU when none available
system.switch_cpus.iq.fu_full::SimdShift            0      0.00%      5.80% # attempts to use FU when none available
system.switch_cpus.iq.fu_full::SimdShiftAcc            0      0.00%      5.80% # attempts to use FU when none available
system.switch_cpus.iq.fu_full::SimdDiv              0      0.00%      5.80% # attempts to use FU when none available
system.switch_cpus.iq.fu_full::SimdSqrt             0      0.00%      5.80% # attempts to use FU when none available
system.switch_cpus.iq.fu_full::SimdFloatAdd            0      0.00%      5.80% # attempts to use FU when none available
system.switch_cpus.iq.fu_full::SimdFloatAlu            0      0.00%      5.80% # attempts to use FU when none available
system.switch_cpus.iq.fu_full::SimdFloatCmp            0      0.00%      5.80% # attempts to use FU when none available
system.switch_cpus.iq.fu_full::SimdFloatCvt            0      0.00%      5.80% # attempts to use FU when none available
system.switch_cpus.iq.fu_full::SimdFloatDiv            0      0.00%      5.80% # attempts to use FU when none available
system.switch_cpus.iq.fu_full::SimdFloatMisc            0      0.00%      5.80% # attempts to use FU when none available
system.switch_cpus.iq.fu_full::SimdFloatMult            0      0.00%      5.80% # attempts to use FU when none available
system.switch_cpus.iq.fu_full::SimdFloatMultAcc            0      0.00%      5.80% # attempts to use FU when none available
system.switch_cpus.iq.fu_full::SimdFloatSqrt            0      0.00%      5.80% # attempts to use FU when none available
system.switch_cpus.iq.fu_full::SimdReduceAdd            0      0.00%      5.80% # attempts to use FU when none available
system.switch_cpus.iq.fu_full::SimdReduceAlu            0      0.00%      5.80% # attempts to use FU when none available
system.switch_cpus.iq.fu_full::SimdReduceCmp            0      0.00%      5.80% # attempts to use FU when none available
system.switch_cpus.iq.fu_full::SimdFloatReduceAdd            0      0.00%      5.80% # attempts to use FU when none available
system.switch_cpus.iq.fu_full::SimdFloatReduceCmp            0      0.00%      5.80% # attempts to use FU when none available
system.switch_cpus.iq.fu_full::SimdAes              0      0.00%      5.80% # attempts to use FU when none available
system.switch_cpus.iq.fu_full::SimdAesMix            0      0.00%      5.80% # attempts to use FU when none available
system.switch_cpus.iq.fu_full::SimdSha1Hash            0      0.00%      5.80% # attempts to use FU when none available
system.switch_cpus.iq.fu_full::SimdSha1Hash2            0      0.00%      5.80% # attempts to use FU when none available
system.switch_cpus.iq.fu_full::SimdSha256Hash            0      0.00%      5.80% # attempts to use FU when none available
system.switch_cpus.iq.fu_full::SimdSha256Hash2            0      0.00%      5.80% # attempts to use FU when none available
system.switch_cpus.iq.fu_full::SimdShaSigma2            0      0.00%      5.80% # attempts to use FU when none available
system.switch_cpus.iq.fu_full::SimdShaSigma3            0      0.00%      5.80% # attempts to use FU when none available
system.switch_cpus.iq.fu_full::SimdPredAlu            0      0.00%      5.80% # attempts to use FU when none available
system.switch_cpus.iq.fu_full::MemRead         511127     93.37%     99.18% # attempts to use FU when none available
system.switch_cpus.iq.fu_full::MemWrite          4495      0.82%    100.00% # attempts to use FU when none available
system.switch_cpus.iq.fu_full::FloatMemRead            0      0.00%    100.00% # attempts to use FU when none available
system.switch_cpus.iq.fu_full::FloatMemWrite            0      0.00%    100.00% # attempts to use FU when none available
system.switch_cpus.iq.fu_full::IprAccess            0      0.00%    100.00% # attempts to use FU when none available
system.switch_cpus.iq.fu_full::InstPrefetch            0      0.00%    100.00% # attempts to use FU when none available
system.switch_cpus.iq.int_alu_accesses        1731099                       # Number of integer alu accesses
system.switch_cpus.iq.int_inst_queue_reads      3843088                       # Number of integer instruction queue reads
system.switch_cpus.iq.int_inst_queue_wakeup_accesses      1165899                       # Number of integer instruction queue wakeup accesses
system.switch_cpus.iq.int_inst_queue_writes      2084081                       # Number of integer instruction queue writes
system.switch_cpus.iq.iqInstsAdded            1542059                       # Number of instructions added to the IQ (excludes non-spec)
system.switch_cpus.iq.iqInstsIssued           1183810                       # Number of instructions issued
system.switch_cpus.iq.iqSquashedInstsExamined       541939                       # Number of squashed instructions iterated over during squash; mainly for profiling
system.switch_cpus.iq.iqSquashedInstsIssued        52057                       # Number of squashed instructions issued
system.switch_cpus.iq.iqSquashedOperandsExamined       563498                       # Number of squashed operands that are examined and possibly removed from graph
system.switch_cpus.iq.issued_per_cycle::samples       876018                       # Number of insts issued each cycle
system.switch_cpus.iq.issued_per_cycle::mean     1.351354                       # Number of insts issued each cycle
system.switch_cpus.iq.issued_per_cycle::stdev     1.248526                       # Number of insts issued each cycle
system.switch_cpus.iq.issued_per_cycle::underflows            0      0.00%      0.00% # Number of insts issued each cycle
system.switch_cpus.iq.issued_per_cycle::0       339208     38.72%     38.72% # Number of insts issued each cycle
system.switch_cpus.iq.issued_per_cycle::1       115427     13.18%     51.90% # Number of insts issued each cycle
system.switch_cpus.iq.issued_per_cycle::2       213873     24.41%     76.31% # Number of insts issued each cycle
system.switch_cpus.iq.issued_per_cycle::3       189422     21.62%     97.94% # Number of insts issued each cycle
system.switch_cpus.iq.issued_per_cycle::4        18069      2.06%    100.00% # Number of insts issued each cycle
system.switch_cpus.iq.issued_per_cycle::5           19      0.00%    100.00% # Number of insts issued each cycle
system.switch_cpus.iq.issued_per_cycle::6            0      0.00%    100.00% # Number of insts issued each cycle
system.switch_cpus.iq.issued_per_cycle::7            0      0.00%    100.00% # Number of insts issued each cycle
system.switch_cpus.iq.issued_per_cycle::8            0      0.00%    100.00% # Number of insts issued each cycle
system.switch_cpus.iq.issued_per_cycle::overflows            0      0.00%    100.00% # Number of insts issued each cycle
system.switch_cpus.iq.issued_per_cycle::min_value            0                       # Number of insts issued each cycle
system.switch_cpus.iq.issued_per_cycle::max_value            5                       # Number of insts issued each cycle
system.switch_cpus.iq.issued_per_cycle::total       876018                       # Number of insts issued each cycle
system.switch_cpus.iq.rate                   1.349654                       # Inst issue rate
system.switch_cpus.iq.vec_alu_accesses              0                       # Number of vector alu accesses
system.switch_cpus.iq.vec_inst_queue_reads            0                       # Number of vector instruction queue reads
system.switch_cpus.iq.vec_inst_queue_wakeup_accesses            0                       # Number of vector instruction queue wakeup accesses
system.switch_cpus.iq.vec_inst_queue_writes            0                       # Number of vector instruction queue writes
system.switch_cpus.memDep0.conflictingLoads       280866                       # Number of conflicting loads.
system.switch_cpus.memDep0.conflictingStores        72072                       # Number of conflicting stores.
system.switch_cpus.memDep0.insertedLoads       663667                       # Number of loads inserted to the mem dependence unit.
system.switch_cpus.memDep0.insertedStores       138448                       # Number of stores inserted to the mem dependence unit.
system.switch_cpus.misc_regfile_reads         2868157                       # number of misc regfile reads
system.switch_cpus.misc_regfile_writes              1                       # number of misc regfile writes
system.switch_cpus.numCycles                   877121                       # number of cpu cycles simulated
system.switch_cpus.numWorkItemsCompleted            0                       # number of work items this cpu completed
system.switch_cpus.numWorkItemsStarted              0                       # number of work items this cpu started
system.switch_cpus.timesIdled                      13                       # Number of times that the entire CPU went into an idle state and unscheduled itself
system.switch_cpus.vec_regfile_writes              44                       # number of vector regfile writes
system.tol2bus.snoop_filter.hit_multi_requests            0                       # Number of requests hitting in the snoop filter with multiple (>1) holders of the requested data.
system.tol2bus.snoop_filter.hit_multi_snoops            0                       # Number of snoops hitting in the snoop filter with multiple (>1) holders of the requested data.
system.tol2bus.snoop_filter.hit_single_requests         3482                       # Number of requests hitting in the snoop filter with a single holder of the requested data.
system.tol2bus.snoop_filter.hit_single_snoops          310                       # Number of snoops hitting in the snoop filter with a single holder of the requested data.
system.tol2bus.snoop_filter.tot_requests         7235                       # Total number of requests made to the snoop filter.
system.tol2bus.snoop_filter.tot_snoops            310                       # Total number of snoops made to the snoop filter.
system.clk_domain.clock                          1000                       # Clock period in ticks
system.cpu.dcache.demand_hits::.cpu.data            8                       # number of demand (read+write) hits
system.cpu.dcache.demand_hits::.switch_cpus.data       398236                       # number of demand (read+write) hits
system.cpu.dcache.demand_hits::total           398244                       # number of demand (read+write) hits
system.cpu.dcache.overall_hits::.cpu.data            8                       # number of overall hits
system.cpu.dcache.overall_hits::.switch_cpus.data       398236                       # number of overall hits
system.cpu.dcache.overall_hits::total          398244                       # number of overall hits
system.cpu.dcache.demand_misses::.cpu.data            5                       # number of demand (read+write) misses
system.cpu.dcache.demand_misses::.switch_cpus.data         7213                       # number of demand (read+write) misses
system.cpu.dcache.demand_misses::total           7218                       # number of demand (read+write) misses
system.cpu.dcache.overall_misses::.cpu.data            5                       # number of overall misses
system.cpu.dcache.overall_misses::.switch_cpus.data         7213                       # number of overall misses
system.cpu.dcache.overall_misses::total          7218                       # number of overall misses
system.cpu.dcache.demand_miss_latency::.switch_cpus.data    257842000                       # number of demand (read+write) miss cycles
system.cpu.dcache.demand_miss_latency::total    257842000                       # number of demand (read+write) miss cycles
system.cpu.dcache.overall_miss_latency::.switch_cpus.data    257842000                       # number of overall miss cycles
system.cpu.dcache.overall_miss_latency::total    257842000                       # number of overall miss cycles
system.cpu.dcache.demand_accesses::.cpu.data           13                       # number of demand (read+write) accesses
system.cpu.dcache.demand_accesses::.switch_cpus.data       405449                       # number of demand (read+write) accesses
system.cpu.dcache.demand_accesses::total       405462                       # number of demand (read+write) accesses
system.cpu.dcache.overall_accesses::.cpu.data           13                       # number of overall (read+write) accesses
system.cpu.dcache.overall_accesses::.switch_cpus.data       405449                       # number of overall (read+write) accesses
system.cpu.dcache.overall_accesses::total       405462                       # number of overall (read+write) accesses
system.cpu.dcache.demand_miss_rate::.cpu.data     0.384615                       # miss rate for demand accesses
system.cpu.dcache.demand_miss_rate::.switch_cpus.data     0.017790                       # miss rate for demand accesses
system.cpu.dcache.demand_miss_rate::total     0.017802                       # miss rate for demand accesses
system.cpu.dcache.overall_miss_rate::.cpu.data     0.384615                       # miss rate for overall accesses
system.cpu.dcache.overall_miss_rate::.switch_cpus.data     0.017790                       # miss rate for overall accesses
system.cpu.dcache.overall_miss_rate::total     0.017802                       # miss rate for overall accesses
system.cpu.dcache.demand_avg_miss_latency::.switch_cpus.data 35746.845973                       # average overall miss latency
system.cpu.dcache.demand_avg_miss_latency::total 35722.083680                       # average overall miss latency
system.cpu.dcache.overall_avg_miss_latency::.switch_cpus.data 35746.845973                       # average overall miss latency
system.cpu.dcache.overall_avg_miss_latency::total 35722.083680                       # average overall miss latency
system.cpu.dcache.blocked_cycles::no_mshrs            0                       # number of cycles access was blocked
system.cpu.dcache.blocked_cycles::no_targets            0                       # number of cycles access was blocked
system.cpu.dcache.blocked::no_mshrs                 0                       # number of cycles access was blocked
system.cpu.dcache.blocked::no_targets               0                       # number of cycles access was blocked
system.cpu.dcache.avg_blocked_cycles::no_mshrs          nan                       # average number of cycles each access was blocked
system.cpu.dcache.avg_blocked_cycles::no_targets          nan                       # average number of cycles each access was blocked
system.cpu.dcache.writebacks::.writebacks         3482                       # number of writebacks
system.cpu.dcache.writebacks::total              3482                       # number of writebacks
system.cpu.dcache.demand_mshr_hits::.switch_cpus.data         3480                       # number of demand (read+write) MSHR hits
system.cpu.dcache.demand_mshr_hits::total         3480                       # number of demand (read+write) MSHR hits
system.cpu.dcache.overall_mshr_hits::.switch_cpus.data         3480                       # number of overall MSHR hits
system.cpu.dcache.overall_mshr_hits::total         3480                       # number of overall MSHR hits
system.cpu.dcache.demand_mshr_misses::.switch_cpus.data         3733                       # number of demand (read+write) MSHR misses
system.cpu.dcache.demand_mshr_misses::total         3733                       # number of demand (read+write) MSHR misses
system.cpu.dcache.overall_mshr_misses::.switch_cpus.data         3733                       # number of overall MSHR misses
system.cpu.dcache.overall_mshr_misses::total         3733                       # number of overall MSHR misses
system.cpu.dcache.demand_mshr_miss_latency::.switch_cpus.data    104155200                       # number of demand (read+write) MSHR miss cycles
system.cpu.dcache.demand_mshr_miss_latency::total    104155200                       # number of demand (read+write) MSHR miss cycles
system.cpu.dcache.overall_mshr_miss_latency::.switch_cpus.data    104155200                       # number of overall MSHR miss cycles
system.cpu.dcache.overall_mshr_miss_latency::total    104155200                       # number of overall MSHR miss cycles
system.cpu.dcache.demand_mshr_miss_rate::.switch_cpus.data     0.009207                       # mshr miss rate for demand accesses
system.cpu.dcache.demand_mshr_miss_rate::total     0.009207                       # mshr miss rate for demand accesses
system.cpu.dcache.overall_mshr_miss_rate::.switch_cpus.data     0.009207                       # mshr miss rate for overall accesses
system.cpu.dcache.overall_mshr_miss_rate::total     0.009207                       # mshr miss rate for overall accesses
system.cpu.dcache.demand_avg_mshr_miss_latency::.switch_cpus.data 27901.205465                       # average overall mshr miss latency
system.cpu.dcache.demand_avg_mshr_miss_latency::total 27901.205465                       # average overall mshr miss latency
system.cpu.dcache.overall_avg_mshr_miss_latency::.switch_cpus.data 27901.205465                       # average overall mshr miss latency
system.cpu.dcache.overall_avg_mshr_miss_latency::total 27901.205465                       # average overall mshr miss latency
system.cpu.dcache.replacements                   3482                       # number of replacements
system.cpu.dcache.ReadReq_hits::.cpu.data            5                       # number of ReadReq hits
system.cpu.dcache.ReadReq_hits::.switch_cpus.data       307283                       # number of ReadReq hits
system.cpu.dcache.ReadReq_hits::total          307288                       # number of ReadReq hits
system.cpu.dcache.ReadReq_misses::.cpu.data            5                       # number of ReadReq misses
system.cpu.dcache.ReadReq_misses::.switch_cpus.data         7213                       # number of ReadReq misses
system.cpu.dcache.ReadReq_misses::total          7218                       # number of ReadReq misses
system.cpu.dcache.ReadReq_miss_latency::.switch_cpus.data    257842000                       # number of ReadReq miss cycles
system.cpu.dcache.ReadReq_miss_latency::total    257842000                       # number of ReadReq miss cycles
system.cpu.dcache.ReadReq_accesses::.cpu.data           10                       # number of ReadReq accesses(hits+misses)
system.cpu.dcache.ReadReq_accesses::.switch_cpus.data       314496                       # number of ReadReq accesses(hits+misses)
system.cpu.dcache.ReadReq_accesses::total       314506                       # number of ReadReq accesses(hits+misses)
system.cpu.dcache.ReadReq_miss_rate::.cpu.data     0.500000                       # miss rate for ReadReq accesses
system.cpu.dcache.ReadReq_miss_rate::.switch_cpus.data     0.022935                       # miss rate for ReadReq accesses
system.cpu.dcache.ReadReq_miss_rate::total     0.022950                       # miss rate for ReadReq accesses
system.cpu.dcache.ReadReq_avg_miss_latency::.switch_cpus.data 35746.845973                       # average ReadReq miss latency
system.cpu.dcache.ReadReq_avg_miss_latency::total 35722.083680                       # average ReadReq miss latency
system.cpu.dcache.ReadReq_mshr_hits::.switch_cpus.data         3480                       # number of ReadReq MSHR hits
system.cpu.dcache.ReadReq_mshr_hits::total         3480                       # number of ReadReq MSHR hits
system.cpu.dcache.ReadReq_mshr_misses::.switch_cpus.data         3733                       # number of ReadReq MSHR misses
system.cpu.dcache.ReadReq_mshr_misses::total         3733                       # number of ReadReq MSHR misses
system.cpu.dcache.ReadReq_mshr_miss_latency::.switch_cpus.data    104155200                       # number of ReadReq MSHR miss cycles
system.cpu.dcache.ReadReq_mshr_miss_latency::total    104155200                       # number of ReadReq MSHR miss cycles
system.cpu.dcache.ReadReq_mshr_miss_rate::.switch_cpus.data     0.011870                       # mshr miss rate for ReadReq accesses
system.cpu.dcache.ReadReq_mshr_miss_rate::total     0.011869                       # mshr miss rate for ReadReq accesses
system.cpu.dcache.ReadReq_avg_mshr_miss_latency::.switch_cpus.data 27901.205465                       # average ReadReq mshr miss latency
system.cpu.dcache.ReadReq_avg_mshr_miss_latency::total 27901.205465                       # average ReadReq mshr miss latency
system.cpu.dcache.WriteReq_hits::.cpu.data            3                       # number of WriteReq hits
system.cpu.dcache.WriteReq_hits::.switch_cpus.data        90953                       # number of WriteReq hits
system.cpu.dcache.WriteReq_hits::total          90956                       # number of WriteReq hits
system.cpu.dcache.WriteReq_accesses::.cpu.data            3                       # number of WriteReq accesses(hits+misses)
system.cpu.dcache.WriteReq_accesses::.switch_cpus.data        90953                       # number of WriteReq accesses(hits+misses)
system.cpu.dcache.WriteReq_accesses::total        90956                       # number of WriteReq accesses(hits+misses)
system.cpu.dcache.power_state.pwrStateResidencyTicks::UNDEFINED 1728176012000                       # Cumulative time (in ticks) in various power states
system.cpu.dcache.tags.tagsinuse           242.304403                       # Cycle average of tags in use
system.cpu.dcache.tags.total_refs               74167                       # Total number of references to valid blocks.
system.cpu.dcache.tags.sampled_refs              3482                       # Sample count of references to valid blocks.
system.cpu.dcache.tags.avg_refs             21.300115                       # Average number of references to valid blocks.
system.cpu.dcache.tags.warmup_cycle      1727825154400                       # Cycle when the warmup percentage was hit.
system.cpu.dcache.tags.occ_blocks::.cpu.data     3.425183                       # Average occupied blocks per requestor
system.cpu.dcache.tags.occ_blocks::.switch_cpus.data   238.879220                       # Average occupied blocks per requestor
system.cpu.dcache.tags.occ_percent::.cpu.data     0.013380                       # Average percentage of cache occupancy
system.cpu.dcache.tags.occ_percent::.switch_cpus.data     0.933122                       # Average percentage of cache occupancy
system.cpu.dcache.tags.occ_percent::total     0.946502                       # Average percentage of cache occupancy
system.cpu.dcache.tags.occ_task_id_blocks::1024          256                       # Occupied blocks per task id
system.cpu.dcache.tags.age_task_id_blocks_1024::0          127                       # Occupied blocks per task id
system.cpu.dcache.tags.age_task_id_blocks_1024::1          116                       # Occupied blocks per task id
system.cpu.dcache.tags.age_task_id_blocks_1024::2           13                       # Occupied blocks per task id
system.cpu.dcache.tags.occ_task_id_percent::1024            1                       # Percentage of cache occupancy per task id
system.cpu.dcache.tags.tag_accesses           3247434                       # Number of tag accesses
system.cpu.dcache.tags.data_accesses          3247434                       # Number of data accesses
system.cpu.dcache.tags.power_state.pwrStateResidencyTicks::UNDEFINED 1728176012000                       # Cumulative time (in ticks) in various power states
system.cpu.dtb.instHits                             0                       # ITB inst hits
system.cpu.dtb.instMisses                           0                       # ITB inst misses
system.cpu.dtb.readHits                             0                       # DTB read hits
system.cpu.dtb.readMisses                           0                       # DTB read misses
system.cpu.dtb.writeHits                            0                       # DTB write hits
system.cpu.dtb.writeMisses                          0                       # DTB write misses
system.cpu.dtb.inserts                              0                       # Number of times an entry is inserted into the TLB
system.cpu.dtb.flushTlb                             2                       # Number of times complete TLB was flushed
system.cpu.dtb.flushTlbMva                          0                       # Number of times TLB was flushed by MVA
system.cpu.dtb.flushTlbMvaAsid                      0                       # Number of times TLB was flushed by MVA & ASID
system.cpu.dtb.flushTlbAsid                         0                       # Number of times TLB was flushed by ASID
system.cpu.dtb.flushedEntries                       0                       # Number of entries that have been flushed from TLB
system.cpu.dtb.alignFaults                          0                       # Number of TLB faults due to alignment restrictions
system.cpu.dtb.prefetchFaults                       0                       # Number of TLB faults due to prefetch
system.cpu.dtb.domainFaults                         0                       # Number of TLB faults due to domain restrictions
system.cpu.dtb.permsFaults                          0                       # Number of TLB faults due to permissions restrictions
system.cpu.dtb.readAccesses                         0                       # DTB read accesses
system.cpu.dtb.writeAccesses                        0                       # DTB write accesses
system.cpu.dtb.instAccesses                         0                       # ITB inst accesses
system.cpu.dtb.hits                                 0                       # Total TLB (inst and data) hits
system.cpu.dtb.misses                               0                       # Total TLB (inst and data) misses
system.cpu.dtb.accesses                             0                       # Total TLB (inst and data) accesses
system.cpu.dtb.stage2_mmu.stage2_tlb.instHits            0                       # ITB inst hits
system.cpu.dtb.stage2_mmu.stage2_tlb.instMisses            0                       # ITB inst misses
system.cpu.dtb.stage2_mmu.stage2_tlb.readHits            0                       # DTB read hits
system.cpu.dtb.stage2_mmu.stage2_tlb.readMisses            0                       # DTB read misses
system.cpu.dtb.stage2_mmu.stage2_tlb.writeHits            0                       # DTB write hits
system.cpu.dtb.stage2_mmu.stage2_tlb.writeMisses            0                       # DTB write misses
system.cpu.dtb.stage2_mmu.stage2_tlb.inserts            0                       # Number of times an entry is inserted into the TLB
system.cpu.dtb.stage2_mmu.stage2_tlb.flushTlb            0                       # Number of times complete TLB was flushed
system.cpu.dtb.stage2_mmu.stage2_tlb.flushTlbMva            0                       # Number of times TLB was flushed by MVA
system.cpu.dtb.stage2_mmu.stage2_tlb.flushTlbMvaAsid            0                       # Number of times TLB was flushed by MVA & ASID
system.cpu.dtb.stage2_mmu.stage2_tlb.flushTlbAsid            0                       # Number of times TLB was flushed by ASID
system.cpu.dtb.stage2_mmu.stage2_tlb.flushedEntries            0                       # Number of entries that have been flushed from TLB
system.cpu.dtb.stage2_mmu.stage2_tlb.alignFaults            0                       # Number of TLB faults due to alignment restrictions
system.cpu.dtb.stage2_mmu.stage2_tlb.prefetchFaults            0                       # Number of TLB faults due to prefetch
system.cpu.dtb.stage2_mmu.stage2_tlb.domainFaults            0                       # Number of TLB faults due to domain restrictions
system.cpu.dtb.stage2_mmu.stage2_tlb.permsFaults            0                       # Number of TLB faults due to permissions restrictions
system.cpu.dtb.stage2_mmu.stage2_tlb.readAccesses            0                       # DTB read accesses
system.cpu.dtb.stage2_mmu.stage2_tlb.writeAccesses            0                       # DTB write accesses
system.cpu.dtb.stage2_mmu.stage2_tlb.instAccesses            0                       # ITB inst accesses
system.cpu.dtb.stage2_mmu.stage2_tlb.hits            0                       # Total TLB (inst and data) hits
system.cpu.dtb.stage2_mmu.stage2_tlb.misses            0                       # Total TLB (inst and data) misses
system.cpu.dtb.stage2_mmu.stage2_tlb.accesses            0                       # Total TLB (inst and data) accesses
system.cpu.dtb.stage2_mmu.stage2_tlb.walker.walks            0                       # Table walker walks requested
system.cpu.dtb.stage2_mmu.stage2_tlb.walker.requestOrigin_Requested::Data            0                       # Table walker requests started/completed, data/inst
system.cpu.dtb.stage2_mmu.stage2_tlb.walker.requestOrigin_Requested::Inst            0                       # Table walker requests started/completed, data/inst
system.cpu.dtb.stage2_mmu.stage2_tlb.walker.requestOrigin_Requested::total            0                       # Table walker requests started/completed, data/inst
system.cpu.dtb.stage2_mmu.stage2_tlb.walker.requestOrigin_Completed::Data            0                       # Table walker requests started/completed, data/inst
system.cpu.dtb.stage2_mmu.stage2_tlb.walker.requestOrigin_Completed::Inst            0                       # Table walker requests started/completed, data/inst
system.cpu.dtb.stage2_mmu.stage2_tlb.walker.requestOrigin_Completed::total            0                       # Table walker requests started/completed, data/inst
system.cpu.dtb.stage2_mmu.stage2_tlb.walker.requestOrigin::total            0                       # Table walker requests started/completed, data/inst
system.cpu.dtb.stage2_mmu.stage2_tlb.walker.power_state.pwrStateResidencyTicks::UNDEFINED 1728176012000                       # Cumulative time (in ticks) in various power states
system.cpu.dtb.walker.walks                         0                       # Table walker walks requested
system.cpu.dtb.walker.requestOrigin_Requested::Data            0                       # Table walker requests started/completed, data/inst
system.cpu.dtb.walker.requestOrigin_Requested::Inst            0                       # Table walker requests started/completed, data/inst
system.cpu.dtb.walker.requestOrigin_Requested::total            0                       # Table walker requests started/completed, data/inst
system.cpu.dtb.walker.requestOrigin_Completed::Data            0                       # Table walker requests started/completed, data/inst
system.cpu.dtb.walker.requestOrigin_Completed::Inst            0                       # Table walker requests started/completed, data/inst
system.cpu.dtb.walker.requestOrigin_Completed::total            0                       # Table walker requests started/completed, data/inst
system.cpu.dtb.walker.requestOrigin::total            0                       # Table walker requests started/completed, data/inst
system.cpu.dtb.walker.power_state.pwrStateResidencyTicks::UNDEFINED 1728176012000                       # Cumulative time (in ticks) in various power states
system.cpu.dtb_walker_cache.blocked_cycles::no_mshrs            0                       # number of cycles access was blocked
system.cpu.dtb_walker_cache.blocked_cycles::no_targets            0                       # number of cycles access was blocked
system.cpu.dtb_walker_cache.blocked::no_mshrs            0                       # number of cycles access was blocked
system.cpu.dtb_walker_cache.blocked::no_targets            0                       # number of cycles access was blocked
system.cpu.dtb_walker_cache.avg_blocked_cycles::no_mshrs          nan                       # average number of cycles each access was blocked
system.cpu.dtb_walker_cache.avg_blocked_cycles::no_targets          nan                       # average number of cycles each access was blocked
system.cpu.dtb_walker_cache.replacements            0                       # number of replacements
system.cpu.dtb_walker_cache.power_state.pwrStateResidencyTicks::UNDEFINED 1728176012000                       # Cumulative time (in ticks) in various power states
system.cpu.dtb_walker_cache.tags.tagsinuse            0                       # Cycle average of tags in use
system.cpu.dtb_walker_cache.tags.total_refs            0                       # Total number of references to valid blocks.
system.cpu.dtb_walker_cache.tags.sampled_refs            0                       # Sample count of references to valid blocks.
system.cpu.dtb_walker_cache.tags.avg_refs          nan                       # Average number of references to valid blocks.
system.cpu.dtb_walker_cache.tags.warmup_cycle            0                       # Cycle when the warmup percentage was hit.
system.cpu.dtb_walker_cache.tags.tag_accesses            0                       # Number of tag accesses
system.cpu.dtb_walker_cache.tags.data_accesses            0                       # Number of data accesses
system.cpu.dtb_walker_cache.tags.power_state.pwrStateResidencyTicks::UNDEFINED 1728176012000                       # Cumulative time (in ticks) in various power states
system.cpu.icache.demand_hits::.cpu.inst           22                       # number of demand (read+write) hits
system.cpu.icache.demand_hits::.switch_cpus.inst       209765                       # number of demand (read+write) hits
system.cpu.icache.demand_hits::total           209787                       # number of demand (read+write) hits
system.cpu.icache.overall_hits::.cpu.inst           22                       # number of overall hits
system.cpu.icache.overall_hits::.switch_cpus.inst       209765                       # number of overall hits
system.cpu.icache.overall_hits::total          209787                       # number of overall hits
system.cpu.icache.demand_misses::.cpu.inst            2                       # number of demand (read+write) misses
system.cpu.icache.demand_misses::.switch_cpus.inst           27                       # number of demand (read+write) misses
system.cpu.icache.demand_misses::total             29                       # number of demand (read+write) misses
system.cpu.icache.overall_misses::.cpu.inst            2                       # number of overall misses
system.cpu.icache.overall_misses::.switch_cpus.inst           27                       # number of overall misses
system.cpu.icache.overall_misses::total            29                       # number of overall misses
system.cpu.icache.demand_miss_latency::.switch_cpus.inst      1662799                       # number of demand (read+write) miss cycles
system.cpu.icache.demand_miss_latency::total      1662799                       # number of demand (read+write) miss cycles
system.cpu.icache.overall_miss_latency::.switch_cpus.inst      1662799                       # number of overall miss cycles
system.cpu.icache.overall_miss_latency::total      1662799                       # number of overall miss cycles
system.cpu.icache.demand_accesses::.cpu.inst           24                       # number of demand (read+write) accesses
system.cpu.icache.demand_accesses::.switch_cpus.inst       209792                       # number of demand (read+write) accesses
system.cpu.icache.demand_accesses::total       209816                       # number of demand (read+write) accesses
system.cpu.icache.overall_accesses::.cpu.inst           24                       # number of overall (read+write) accesses
system.cpu.icache.overall_accesses::.switch_cpus.inst       209792                       # number of overall (read+write) accesses
system.cpu.icache.overall_accesses::total       209816                       # number of overall (read+write) accesses
system.cpu.icache.demand_miss_rate::.cpu.inst     0.083333                       # miss rate for demand accesses
system.cpu.icache.demand_miss_rate::.switch_cpus.inst     0.000129                       # miss rate for demand accesses
system.cpu.icache.demand_miss_rate::total     0.000138                       # miss rate for demand accesses
system.cpu.icache.overall_miss_rate::.cpu.inst     0.083333                       # miss rate for overall accesses
system.cpu.icache.overall_miss_rate::.switch_cpus.inst     0.000129                       # miss rate for overall accesses
system.cpu.icache.overall_miss_rate::total     0.000138                       # miss rate for overall accesses
system.cpu.icache.demand_avg_miss_latency::.switch_cpus.inst 61585.148148                       # average overall miss latency
system.cpu.icache.demand_avg_miss_latency::total 57337.896552                       # average overall miss latency
system.cpu.icache.overall_avg_miss_latency::.switch_cpus.inst 61585.148148                       # average overall miss latency
system.cpu.icache.overall_avg_miss_latency::total 57337.896552                       # average overall miss latency
system.cpu.icache.blocked_cycles::no_mshrs          688                       # number of cycles access was blocked
system.cpu.icache.blocked_cycles::no_targets            0                       # number of cycles access was blocked
system.cpu.icache.blocked::no_mshrs                 5                       # number of cycles access was blocked
system.cpu.icache.blocked::no_targets               0                       # number of cycles access was blocked
system.cpu.icache.avg_blocked_cycles::no_mshrs   137.600000                       # average number of cycles each access was blocked
system.cpu.icache.avg_blocked_cycles::no_targets          nan                       # average number of cycles each access was blocked
system.cpu.icache.demand_mshr_hits::.switch_cpus.inst           14                       # number of demand (read+write) MSHR hits
system.cpu.icache.demand_mshr_hits::total           14                       # number of demand (read+write) MSHR hits
system.cpu.icache.overall_mshr_hits::.switch_cpus.inst           14                       # number of overall MSHR hits
system.cpu.icache.overall_mshr_hits::total           14                       # number of overall MSHR hits
system.cpu.icache.demand_mshr_misses::.switch_cpus.inst           13                       # number of demand (read+write) MSHR misses
system.cpu.icache.demand_mshr_misses::total           13                       # number of demand (read+write) MSHR misses
system.cpu.icache.overall_mshr_misses::.switch_cpus.inst           13                       # number of overall MSHR misses
system.cpu.icache.overall_mshr_misses::total           13                       # number of overall MSHR misses
system.cpu.icache.demand_mshr_miss_latency::.switch_cpus.inst      1101200                       # number of demand (read+write) MSHR miss cycles
system.cpu.icache.demand_mshr_miss_latency::total      1101200                       # number of demand (read+write) MSHR miss cycles
system.cpu.icache.overall_mshr_miss_latency::.switch_cpus.inst      1101200                       # number of overall MSHR miss cycles
system.cpu.icache.overall_mshr_miss_latency::total      1101200                       # number of overall MSHR miss cycles
system.cpu.icache.demand_mshr_miss_rate::.switch_cpus.inst     0.000062                       # mshr miss rate for demand accesses
system.cpu.icache.demand_mshr_miss_rate::total     0.000062                       # mshr miss rate for demand accesses
system.cpu.icache.overall_mshr_miss_rate::.switch_cpus.inst     0.000062                       # mshr miss rate for overall accesses
system.cpu.icache.overall_mshr_miss_rate::total     0.000062                       # mshr miss rate for overall accesses
system.cpu.icache.demand_avg_mshr_miss_latency::.switch_cpus.inst 84707.692308                       # average overall mshr miss latency
system.cpu.icache.demand_avg_mshr_miss_latency::total 84707.692308                       # average overall mshr miss latency
system.cpu.icache.overall_avg_mshr_miss_latency::.switch_cpus.inst 84707.692308                       # average overall mshr miss latency
system.cpu.icache.overall_avg_mshr_miss_latency::total 84707.692308                       # average overall mshr miss latency
system.cpu.icache.replacements                      0                       # number of replacements
system.cpu.icache.ReadReq_hits::.cpu.inst           22                       # number of ReadReq hits
system.cpu.icache.ReadReq_hits::.switch_cpus.inst       209765                       # number of ReadReq hits
system.cpu.icache.ReadReq_hits::total          209787                       # number of ReadReq hits
system.cpu.icache.ReadReq_misses::.cpu.inst            2                       # number of ReadReq misses
system.cpu.icache.ReadReq_misses::.switch_cpus.inst           27                       # number of ReadReq misses
system.cpu.icache.ReadReq_misses::total            29                       # number of ReadReq misses
system.cpu.icache.ReadReq_miss_latency::.switch_cpus.inst      1662799                       # number of ReadReq miss cycles
system.cpu.icache.ReadReq_miss_latency::total      1662799                       # number of ReadReq miss cycles
system.cpu.icache.ReadReq_accesses::.cpu.inst           24                       # number of ReadReq accesses(hits+misses)
system.cpu.icache.ReadReq_accesses::.switch_cpus.inst       209792                       # number of ReadReq accesses(hits+misses)
system.cpu.icache.ReadReq_accesses::total       209816                       # number of ReadReq accesses(hits+misses)
system.cpu.icache.ReadReq_miss_rate::.cpu.inst     0.083333                       # miss rate for ReadReq accesses
system.cpu.icache.ReadReq_miss_rate::.switch_cpus.inst     0.000129                       # miss rate for ReadReq accesses
system.cpu.icache.ReadReq_miss_rate::total     0.000138                       # miss rate for ReadReq accesses
system.cpu.icache.ReadReq_avg_miss_latency::.switch_cpus.inst 61585.148148                       # average ReadReq miss latency
system.cpu.icache.ReadReq_avg_miss_latency::total 57337.896552                       # average ReadReq miss latency
system.cpu.icache.ReadReq_mshr_hits::.switch_cpus.inst           14                       # number of ReadReq MSHR hits
system.cpu.icache.ReadReq_mshr_hits::total           14                       # number of ReadReq MSHR hits
system.cpu.icache.ReadReq_mshr_misses::.switch_cpus.inst           13                       # number of ReadReq MSHR misses
system.cpu.icache.ReadReq_mshr_misses::total           13                       # number of ReadReq MSHR misses
system.cpu.icache.ReadReq_mshr_miss_latency::.switch_cpus.inst      1101200                       # number of ReadReq MSHR miss cycles
system.cpu.icache.ReadReq_mshr_miss_latency::total      1101200                       # number of ReadReq MSHR miss cycles
system.cpu.icache.ReadReq_mshr_miss_rate::.switch_cpus.inst     0.000062                       # mshr miss rate for ReadReq accesses
system.cpu.icache.ReadReq_mshr_miss_rate::total     0.000062                       # mshr miss rate for ReadReq accesses
system.cpu.icache.ReadReq_avg_mshr_miss_latency::.switch_cpus.inst 84707.692308                       # average ReadReq mshr miss latency
system.cpu.icache.ReadReq_avg_mshr_miss_latency::total 84707.692308                       # average ReadReq mshr miss latency
system.cpu.icache.power_state.pwrStateResidencyTicks::UNDEFINED 1728176012000                       # Cumulative time (in ticks) in various power states
system.cpu.icache.tags.tagsinuse            14.979310                       # Cycle average of tags in use
system.cpu.icache.tags.total_refs                   0                       # Total number of references to valid blocks.
system.cpu.icache.tags.sampled_refs                 0                       # Sample count of references to valid blocks.
system.cpu.icache.tags.avg_refs                   nan                       # Average number of references to valid blocks.
system.cpu.icache.tags.warmup_cycle      1727825154000                       # Cycle when the warmup percentage was hit.
system.cpu.icache.tags.occ_blocks::.cpu.inst     1.999974                       # Average occupied blocks per requestor
system.cpu.icache.tags.occ_blocks::.switch_cpus.inst    12.979336                       # Average occupied blocks per requestor
system.cpu.icache.tags.occ_percent::.cpu.inst     0.003906                       # Average percentage of cache occupancy
system.cpu.icache.tags.occ_percent::.switch_cpus.inst     0.025350                       # Average percentage of cache occupancy
system.cpu.icache.tags.occ_percent::total     0.029256                       # Average percentage of cache occupancy
system.cpu.icache.tags.occ_task_id_blocks::1024           15                       # Occupied blocks per task id
system.cpu.icache.tags.age_task_id_blocks_1024::2           15                       # Occupied blocks per task id
system.cpu.icache.tags.occ_task_id_percent::1024     0.029297                       # Percentage of cache occupancy per task id
system.cpu.icache.tags.tag_accesses           1678543                       # Number of tag accesses
system.cpu.icache.tags.data_accesses          1678543                       # Number of data accesses
system.cpu.icache.tags.power_state.pwrStateResidencyTicks::UNDEFINED 1728176012000                       # Cumulative time (in ticks) in various power states
system.cpu.itb.instHits                             0                       # ITB inst hits
system.cpu.itb.instMisses                           0                       # ITB inst misses
system.cpu.itb.readHits                             0                       # DTB read hits
system.cpu.itb.readMisses                           0                       # DTB read misses
system.cpu.itb.writeHits                            0                       # DTB write hits
system.cpu.itb.writeMisses                          0                       # DTB write misses
system.cpu.itb.inserts                              0                       # Number of times an entry is inserted into the TLB
system.cpu.itb.flushTlb                             2                       # Number of times complete TLB was flushed
system.cpu.itb.flushTlbMva                          0                       # Number of times TLB was flushed by MVA
system.cpu.itb.flushTlbMvaAsid                      0                       # Number of times TLB was flushed by MVA & ASID
system.cpu.itb.flushTlbAsid                         0                       # Number of times TLB was flushed by ASID
system.cpu.itb.flushedEntries                       0                       # Number of entries that have been flushed from TLB
system.cpu.itb.alignFaults                          0                       # Number of TLB faults due to alignment restrictions
system.cpu.itb.prefetchFaults                       0                       # Number of TLB faults due to prefetch
system.cpu.itb.domainFaults                         0                       # Number of TLB faults due to domain restrictions
system.cpu.itb.permsFaults                          0                       # Number of TLB faults due to permissions restrictions
system.cpu.itb.readAccesses                         0                       # DTB read accesses
system.cpu.itb.writeAccesses                        0                       # DTB write accesses
system.cpu.itb.instAccesses                         0                       # ITB inst accesses
system.cpu.itb.hits                                 0                       # Total TLB (inst and data) hits
system.cpu.itb.misses                               0                       # Total TLB (inst and data) misses
system.cpu.itb.accesses                             0                       # Total TLB (inst and data) accesses
system.cpu.itb.stage2_mmu.stage2_tlb.instHits            0                       # ITB inst hits
system.cpu.itb.stage2_mmu.stage2_tlb.instMisses            0                       # ITB inst misses
system.cpu.itb.stage2_mmu.stage2_tlb.readHits            0                       # DTB read hits
system.cpu.itb.stage2_mmu.stage2_tlb.readMisses            0                       # DTB read misses
system.cpu.itb.stage2_mmu.stage2_tlb.writeHits            0                       # DTB write hits
system.cpu.itb.stage2_mmu.stage2_tlb.writeMisses            0                       # DTB write misses
system.cpu.itb.stage2_mmu.stage2_tlb.inserts            0                       # Number of times an entry is inserted into the TLB
system.cpu.itb.stage2_mmu.stage2_tlb.flushTlb            0                       # Number of times complete TLB was flushed
system.cpu.itb.stage2_mmu.stage2_tlb.flushTlbMva            0                       # Number of times TLB was flushed by MVA
system.cpu.itb.stage2_mmu.stage2_tlb.flushTlbMvaAsid            0                       # Number of times TLB was flushed by MVA & ASID
system.cpu.itb.stage2_mmu.stage2_tlb.flushTlbAsid            0                       # Number of times TLB was flushed by ASID
system.cpu.itb.stage2_mmu.stage2_tlb.flushedEntries            0                       # Number of entries that have been flushed from TLB
system.cpu.itb.stage2_mmu.stage2_tlb.alignFaults            0                       # Number of TLB faults due to alignment restrictions
system.cpu.itb.stage2_mmu.stage2_tlb.prefetchFaults            0                       # Number of TLB faults due to prefetch
system.cpu.itb.stage2_mmu.stage2_tlb.domainFaults            0                       # Number of TLB faults due to domain restrictions
system.cpu.itb.stage2_mmu.stage2_tlb.permsFaults            0                       # Number of TLB faults due to permissions restrictions
system.cpu.itb.stage2_mmu.stage2_tlb.readAccesses            0                       # DTB read accesses
system.cpu.itb.stage2_mmu.stage2_tlb.writeAccesses            0                       # DTB write accesses
system.cpu.itb.stage2_mmu.stage2_tlb.instAccesses            0                       # ITB inst accesses
system.cpu.itb.stage2_mmu.stage2_tlb.hits            0                       # Total TLB (inst and data) hits
system.cpu.itb.stage2_mmu.stage2_tlb.misses            0                       # Total TLB (inst and data) misses
system.cpu.itb.stage2_mmu.stage2_tlb.accesses            0                       # Total TLB (inst and data) accesses
system.cpu.itb.stage2_mmu.stage2_tlb.walker.walks            0                       # Table walker walks requested
system.cpu.itb.stage2_mmu.stage2_tlb.walker.requestOrigin_Requested::Data            0                       # Table walker requests started/completed, data/inst
system.cpu.itb.stage2_mmu.stage2_tlb.walker.requestOrigin_Requested::Inst            0                       # Table walker requests started/completed, data/inst
system.cpu.itb.stage2_mmu.stage2_tlb.walker.requestOrigin_Requested::total            0                       # Table walker requests started/completed, data/inst
system.cpu.itb.stage2_mmu.stage2_tlb.walker.requestOrigin_Completed::Data            0                       # Table walker requests started/completed, data/inst
system.cpu.itb.stage2_mmu.stage2_tlb.walker.requestOrigin_Completed::Inst            0                       # Table walker requests started/completed, data/inst
system.cpu.itb.stage2_mmu.stage2_tlb.walker.requestOrigin_Completed::total            0                       # Table walker requests started/completed, data/inst
system.cpu.itb.stage2_mmu.stage2_tlb.walker.requestOrigin::total            0                       # Table walker requests started/completed, data/inst
system.cpu.itb.stage2_mmu.stage2_tlb.walker.power_state.pwrStateResidencyTicks::UNDEFINED 1728176012000                       # Cumulative time (in ticks) in various power states
system.cpu.itb.walker.walks                         0                       # Table walker walks requested
system.cpu.itb.walker.requestOrigin_Requested::Data            0                       # Table walker requests started/completed, data/inst
system.cpu.itb.walker.requestOrigin_Requested::Inst            0                       # Table walker requests started/completed, data/inst
system.cpu.itb.walker.requestOrigin_Requested::total            0                       # Table walker requests started/completed, data/inst
system.cpu.itb.walker.requestOrigin_Completed::Data            0                       # Table walker requests started/completed, data/inst
system.cpu.itb.walker.requestOrigin_Completed::Inst            0                       # Table walker requests started/completed, data/inst
system.cpu.itb.walker.requestOrigin_Completed::total            0                       # Table walker requests started/completed, data/inst
system.cpu.itb.walker.requestOrigin::total            0                       # Table walker requests started/completed, data/inst
system.cpu.itb.walker.power_state.pwrStateResidencyTicks::UNDEFINED 1728176012000                       # Cumulative time (in ticks) in various power states
system.cpu.itb_walker_cache.blocked_cycles::no_mshrs            0                       # number of cycles access was blocked
system.cpu.itb_walker_cache.blocked_cycles::no_targets            0                       # number of cycles access was blocked
system.cpu.itb_walker_cache.blocked::no_mshrs            0                       # number of cycles access was blocked
system.cpu.itb_walker_cache.blocked::no_targets            0                       # number of cycles access was blocked
system.cpu.itb_walker_cache.avg_blocked_cycles::no_mshrs          nan                       # average number of cycles each access was blocked
system.cpu.itb_walker_cache.avg_blocked_cycles::no_targets          nan                       # average number of cycles each access was blocked
system.cpu.itb_walker_cache.replacements            0                       # number of replacements
system.cpu.itb_walker_cache.power_state.pwrStateResidencyTicks::UNDEFINED 1728176012000                       # Cumulative time (in ticks) in various power states
system.cpu.itb_walker_cache.tags.tagsinuse            0                       # Cycle average of tags in use
system.cpu.itb_walker_cache.tags.total_refs            0                       # Total number of references to valid blocks.
system.cpu.itb_walker_cache.tags.sampled_refs            0                       # Sample count of references to valid blocks.
system.cpu.itb_walker_cache.tags.avg_refs          nan                       # Average number of references to valid blocks.
system.cpu.itb_walker_cache.tags.warmup_cycle            0                       # Cycle when the warmup percentage was hit.
system.cpu.itb_walker_cache.tags.tag_accesses            0                       # Number of tag accesses
system.cpu.itb_walker_cache.tags.data_accesses            0                       # Number of data accesses
system.cpu.itb_walker_cache.tags.power_state.pwrStateResidencyTicks::UNDEFINED 1728176012000                       # Cumulative time (in ticks) in various power states
[...]
system.switch_cpus.fetch.branches             1768723                       # Number of branches that fetch encountered
system.switch_cpus.fetch.predictedBranches       970407                       # Number of branches that fetch has predicted taken
system.switch_cpus.fetch.cycles               5166051                       # Number of cycles fetch has run and was not squashing or blocked
system.switch_cpus.fetch.squashCycles           24696                       # Number of cycles fetch has spent squashing
system.switch_cpus.fetch.miscStallCycles          757                       # Number of cycles fetch has spent waiting on interrupts,or bad addresses, or out of MSHRs
system.switch_cpus.fetch.pendingTrapStallCycles          824                       # Number of stall cycles due to pending traps
system.switch_cpus.fetch.icacheWaitRetryStallCycles           55                       # Number of stall cycles due to full MSHR
system.switch_cpus.fetch.cacheLines           1163817                       # Number of cache lines fetched
system.switch_cpus.fetch.icacheSquashes            45                       # Number of outstanding Icache misses that were squashed
system.switch_cpus.fetch.nisnDist::samples      5190894                       # Number of instructions fetched each cycle (Total)
system.switch_cpus.fetch.nisnDist::mean      2.279267                       # Number of instructions fetched each cycle (Total)
system.switch_cpus.fetch.nisnDist::stdev     2.960675                       # Number of instructions fetched each cycle (Total)
system.switch_cpus.fetch.nisnDist::underflows            0      0.00%      0.00% # Number of instructions fetched each cycle (Total)
system.switch_cpus.fetch.nisnDist::0          2771148     53.38%     53.38% # Number of instructions fetched each cycle (Total)
system.switch_cpus.fetch.nisnDist::1           309687      5.97%     59.35% # Number of instructions fetched each cycle (Total)
system.switch_cpus.fetch.nisnDist::2           186685      3.60%     62.95% # Number of instructions fetched each cycle (Total)
system.switch_cpus.fetch.nisnDist::3           279883      5.39%     68.34% # Number of instructions fetched each cycle (Total)
system.switch_cpus.fetch.nisnDist::4           409988      7.90%     76.24% # Number of instructions fetched each cycle (Total)
system.switch_cpus.fetch.nisnDist::5           113540      2.19%     78.42% # Number of instructions fetched each cycle (Total)
system.switch_cpus.fetch.nisnDist::6           348198      6.71%     85.13% # Number of instructions fetched each cycle (Total)
system.switch_cpus.fetch.nisnDist::7           162235      3.13%     88.26% # Number of instructions fetched each cycle (Total)
system.switch_cpus.fetch.nisnDist::8           609530     11.74%    100.00% # Number of instructions fetched each cycle (Total)
system.switch_cpus.fetch.nisnDist::overflows            0      0.00%    100.00% # Number of instructions fetched each cycle (Total)
system.switch_cpus.fetch.nisnDist::min_value            0                       # Number of instructions fetched each cycle (Total)
system.switch_cpus.fetch.nisnDist::max_value            8                       # Number of instructions fetched each cycle (Total)
system.switch_cpus.fetch.nisnDist::total      5190894                       # Number of instructions fetched each cycle (Total)
system.switch_cpus.fetch.branchRate          0.340714                       # Number of branch fetches per cycle
system.switch_cpus.fetch.rate                2.278938                       # Number of inst fetches per cycle
system.switch_cpus.itb.instHits                     0                       # ITB inst hits
system.switch_cpus.itb.instMisses                   0                       # ITB inst misses
system.switch_cpus.itb.readHits                     0                       # DTB read hits
system.switch_cpus.itb.readMisses                   0                       # DTB read misses
system.switch_cpus.itb.writeHits                    0                       # DTB write hits
system.switch_cpus.itb.writeMisses                  0                       # DTB write misses
system.switch_cpus.itb.inserts                      0                       # Number of times an entry is inserted into the TLB
system.switch_cpus.itb.flushTlb                     0                       # Number of times complete TLB was flushed
system.switch_cpus.itb.flushTlbMva                  0                       # Number of times TLB was flushed by MVA
system.switch_cpus.itb.flushTlbMvaAsid              0                       # Number of times TLB was flushed by MVA & ASID
system.switch_cpus.itb.flushTlbAsid                 0                       # Number of times TLB was flushed by ASID
system.switch_cpus.itb.flushedEntries               0                       # Number of entries that have been flushed from TLB
system.switch_cpus.itb.alignFaults                  0                       # Number of TLB faults due to alignment restrictions
system.switch_cpus.itb.prefetchFaults               0                       # Number of TLB faults due to prefetch
system.switch_cpus.itb.domainFaults                 0                       # Number of TLB faults due to domain restrictions
system.switch_cpus.itb.permsFaults                  0                       # Number of TLB faults due to permissions restrictions
system.switch_cpus.itb.readAccesses                 0                       # DTB read accesses
system.switch_cpus.itb.writeAccesses                0                       # DTB write accesses
system.switch_cpus.itb.instAccesses                 0                       # ITB inst accesses
system.switch_cpus.itb.hits                         0                       # Total TLB (inst and data) hits
system.switch_cpus.itb.misses                       0                       # Total TLB (inst and data) misses
system.switch_cpus.itb.accesses                     0                       # Total TLB (inst and data) accesses
system.switch_cpus.itb.stage2_mmu.stage2_tlb.instHits            0                       # ITB inst hits
system.switch_cpus.itb.stage2_mmu.stage2_tlb.instMisses            0                       # ITB inst misses
system.switch_cpus.itb.stage2_mmu.stage2_tlb.readHits            0                       # DTB read hits
system.switch_cpus.itb.stage2_mmu.stage2_tlb.readMisses            0                       # DTB read misses
system.switch_cpus.itb.stage2_mmu.stage2_tlb.writeHits            0                       # DTB write hits
system.switch_cpus.itb.stage2_mmu.stage2_tlb.writeMisses            0                       # DTB write misses
system.switch_cpus.itb.stage2_mmu.stage2_tlb.inserts            0                       # Number of times an entry is inserted into the TLB
system.switch_cpus.itb.stage2_mmu.stage2_tlb.flushTlb            0                       # Number of times complete TLB was flushed
system.switch_cpus.itb.stage2_mmu.stage2_tlb.flushTlbMva            0                       # Number of times TLB was flushed by MVA
system.switch_cpus.itb.stage2_mmu.stage2_tlb.flushTlbMvaAsid            0                       # Number of times TLB was flushed by MVA & ASID
system.switch_cpus.itb.stage2_mmu.stage2_tlb.flushTlbAsid            0                       # Number of times TLB was flushed by ASID
system.switch_cpus.itb.stage2_mmu.stage2_tlb.flushedEntries            0                       # Number of entries that have been flushed from TLB
system.switch_cpus.itb.stage2_mmu.stage2_tlb.alignFaults            0                       # Number of TLB faults due to alignment restrictions
system.switch_cpus.itb.stage2_mmu.stage2_tlb.prefetchFaults            0                       # Number of TLB faults due to prefetch
system.switch_cpus.itb.stage2_mmu.stage2_tlb.domainFaults            0                       # Number of TLB faults due to domain restrictions
system.switch_cpus.itb.stage2_mmu.stage2_tlb.permsFaults            0                       # Number of TLB faults due to permissions restrictions
system.switch_cpus.itb.stage2_mmu.stage2_tlb.readAccesses            0                       # DTB read accesses
system.switch_cpus.itb.stage2_mmu.stage2_tlb.writeAccesses            0                       # DTB write accesses
system.switch_cpus.itb.stage2_mmu.stage2_tlb.instAccesses            0                       # ITB inst accesses
system.switch_cpus.itb.stage2_mmu.stage2_tlb.hits            0                       # Total TLB (inst and data) hits
system.switch_cpus.itb.stage2_mmu.stage2_tlb.misses            0                       # Total TLB (inst and data) misses
system.switch_cpus.itb.stage2_mmu.stage2_tlb.accesses            0                       # Total TLB (inst and data) accesses
system.switch_cpus.itb.stage2_mmu.stage2_tlb.walker.walks            0                       # Table walker walks requested
system.switch_cpus.itb.stage2_mmu.stage2_tlb.walker.requestOrigin_Requested::Data            0                       # Table walker requests started/completed, data/inst
system.switch_cpus.itb.stage2_mmu.stage2_tlb.walker.requestOrigin_Requested::Inst            0                       # Table walker requests started/completed, data/inst
system.switch_cpus.itb.stage2_mmu.stage2_tlb.walker.requestOrigin_Requested::total            0                       # Table walker requests started/completed, data/inst
system.switch_cpus.itb.stage2_mmu.stage2_tlb.walker.requestOrigin_Completed::Data            0                       # Table walker requests started/completed, data/inst
system.switch_cpus.itb.stage2_mmu.stage2_tlb.walker.requestOrigin_Completed::Inst            0                       # Table walker requests started/completed, data/inst
system.switch_cpus.itb.stage2_mmu.stage2_tlb.walker.requestOrigin_Completed::total            0                       # Table walker requests started/completed, data/inst
system.switch_cpus.itb.stage2_mmu.stage2_tlb.walker.requestOrigin::total            0                       # Table walker requests started/completed, data/inst
system.switch_cpus.itb.stage2_mmu.stage2_tlb.walker.power_state.pwrStateResidencyTicks::UNDEFINED   2076488400                       # Cumulative time (in ticks) in various power states
system.switch_cpus.itb.walker.walks                 0                       # Table walker walks requested
system.switch_cpus.itb.walker.requestOrigin_Requested::Data            0                       # Table walker requests started/completed, data/inst
system.switch_cpus.itb.walker.requestOrigin_Requested::Inst            0                       # Table walker requests started/completed, data/inst
system.switch_cpus.itb.walker.requestOrigin_Requested::total            0                       # Table walker requests started/completed, data/inst
system.switch_cpus.itb.walker.requestOrigin_Completed::Data            0                       # Table walker requests started/completed, data/inst
system.switch_cpus.itb.walker.requestOrigin_Completed::Inst            0                       # Table walker requests started/completed, data/inst
system.switch_cpus.itb.walker.requestOrigin_Completed::total            0                       # Table walker requests started/completed, data/inst
system.switch_cpus.itb.walker.requestOrigin::total            0                       # Table walker requests started/completed, data/inst
system.switch_cpus.itb.walker.power_state.pwrStateResidencyTicks::UNDEFINED   2076488400                       # Cumulative time (in ticks) in various power states
system.switch_cpus.lsq0.forwLoads             1585042                       # Number of loads that had data forwarded from stores
system.switch_cpus.lsq0.squashedLoads          516726                       # Number of loads squashed
system.switch_cpus.lsq0.ignoredResponses            2                       # Number of memory responses ignored because the instruction is squashed
system.switch_cpus.lsq0.memOrderViolation          158                       # Number of memory ordering violations
system.switch_cpus.lsq0.squashedStores          90984                       # Number of stores squashed
system.switch_cpus.lsq0.rescheduledLoads            0                       # Number of loads that were rescheduled
system.switch_cpus.lsq0.blockedByCache             41                       # Number of times an access to memory failed due to the cache being blocked
system.switch_cpus.power_state.pwrStateResidencyTicks::OFF   2076488400                       # Cumulative time (in ticks) in various power states
system.switch_cpus.rename.squashCycles          12339                       # Number of cycles rename is squashing
system.switch_cpus.rename.idleCycles           921210                       # Number of cycles rename is idle
system.switch_cpus.rename.blockCycles         1559615                       # Number of cycles rename is blocking
system.switch_cpus.rename.serializeStallCycles          149                       # count of cycles rename stalledfor serializing inst
system.switch_cpus.rename.runCycles           1058829                       # Number of cycles rename is running
system.switch_cpus.rename.unblockCycles       1638752                       # Number of cycles rename is unblocking
system.switch_cpus.rename.renamedInsts       11229087                       # Number of instructions processed by rename
system.switch_cpus.rename.squashedInsts         32388                       # Number of squashed instructions processed by rename
system.switch_cpus.rename.ROBFullEvents            27                       # Number of times rename has blocked due to ROB full
system.switch_cpus.rename.IQFullEvents         766023                       # Number of times rename has blocked due to IQ full
system.switch_cpus.rename.SQFullEvents            528                       # Number of times rename has blocked due to SQ full
system.switch_cpus.rename.fullRegistersEvents       877520                       # Number of times there has been no free registers
system.switch_cpus.rename.renamedOperands     13870684                       # Number of destination operands rename has renamed
system.switch_cpus.rename.lookups            16769993                       # Number of register rename lookups that rename has made
system.switch_cpus.rename.intLookups         11784938                       # Number of integer rename lookups
system.switch_cpus.rename.committedMaps      12405477                       # Number of HB maps that are committed
system.switch_cpus.rename.undoneMaps          1465188                       # Number of HB maps that are undone due to squashing
system.switch_cpus.rename.serializing              33                       # count of serializing insts renamed
system.switch_cpus.rename.tempSerializing            0                       # count of temporary serializing insts renamed
system.switch_cpus.rename.skidInsts           4260534                       # count of insts added to the skid buffer
system.switch_cpus.rob.reads                 13952748                       # The number of ROB reads
system.switch_cpus.rob.writes                22644972                       # The number of ROB writes
system.switch_cpus.thread_0.numInsts         10000000                       # Number of Instructions committed
system.switch_cpus.thread_0.numOps           10000001                       # Number of Ops committed
system.switch_cpus.thread_0.numMemRefs              0                       # Number of Memory References
system.tol2bus.trans_dist::ReadResp            205286                       # Transaction distribution
system.tol2bus.trans_dist::WritebackDirty        94720                       # Transaction distribution
system.tol2bus.trans_dist::WritebackClean       116001                       # Transaction distribution
system.tol2bus.trans_dist::CleanEvict            2829                       # Transaction distribution
system.tol2bus.trans_dist::HardPFReq            10161                       # Transaction distribution
system.tol2bus.trans_dist::ReadExReq             4736                       # Transaction distribution
system.tol2bus.trans_dist::ReadExResp            4736                       # Transaction distribution
system.tol2bus.trans_dist::ReadCleanReq            14                       # Transaction distribution
system.tol2bus.trans_dist::ReadSharedReq       205274                       # Transaction distribution
system.tol2bus.pkt_count_system.cpu.icache.mem_side_port::system.l2.cpu_side_port           28                       # Packet count per connected requestor and responder (bytes)
system.tol2bus.pkt_count_system.cpu.dcache.mem_side_port::system.l2.cpu_side_port       630026                       # Packet count per connected requestor and responder (bytes)
system.tol2bus.pkt_count::total                630054                       # Packet count per connected requestor and responder (bytes)
system.tol2bus.pkt_size_system.cpu.icache.mem_side_port::system.l2.cpu_side_port         1792                       # Cumulative packet size per connected requestor and responder (bytes)
system.tol2bus.pkt_size_system.cpu.dcache.mem_side_port::system.l2.cpu_side_port     53762048                       # Cumulative packet size per connected requestor and responder (bytes)
system.tol2bus.pkt_size::total               53763840                       # Cumulative packet size per connected requestor and responder (bytes)
system.tol2bus.snoops                           13703                       # Total snoops (count)
system.tol2bus.snoopTraffic                     91264                       # Total snoop traffic (bytes)
system.tol2bus.snoop_fanout::samples           223727                       # Request fanout histogram
system.tol2bus.snoop_fanout::mean            0.001953                       # Request fanout histogram
system.tol2bus.snoop_fanout::stdev           0.044153                       # Request fanout histogram
system.tol2bus.snoop_fanout::underflows             0      0.00%      0.00% # Request fanout histogram
system.tol2bus.snoop_fanout::0                 223290     99.80%     99.80% # Request fanout histogram
system.tol2bus.snoop_fanout::1                    437      0.20%    100.00% # Request fanout histogram
system.tol2bus.snoop_fanout::2                      0      0.00%    100.00% # Request fanout histogram
system.tol2bus.snoop_fanout::3                      0      0.00%    100.00% # Request fanout histogram
system.tol2bus.snoop_fanout::4                      0      0.00%    100.00% # Request fanout histogram
system.tol2bus.snoop_fanout::overflows              0      0.00%    100.00% # Request fanout histogram
system.tol2bus.snoop_fanout::min_value              0                       # Request fanout histogram
system.tol2bus.snoop_fanout::max_value              1                       # Request fanout histogram
system.tol2bus.snoop_fanout::total             223727                       # Request fanout histogram
system.tol2bus.power_state.pwrStateResidencyTicks::UNDEFINED   2076488400                       # Cumulative time (in ticks) in various power states
system.tol2bus.reqLayer0.occupancy          504025600                       # Layer occupancy (ticks)
system.tol2bus.reqLayer0.utilization             24.3                       # Layer utilization (%)
system.tol2bus.respLayer0.occupancy             28000                       # Layer occupancy (ticks)
system.tol2bus.respLayer0.utilization             0.0                       # Layer utilization (%)
system.tol2bus.respLayer1.occupancy         420016000                       # Layer occupancy (ticks)
system.tol2bus.respLayer1.utilization            20.2                       # Layer utilization (%)
system.voltage_domain.voltage                       1                       # Voltage in Volts

---------- End Simulation Statistics   ----------
