
---------- Begin Simulation Statistics ----------
final_tick                               853786482400                       # Number of ticks from beginning of simulation (restored from checkpoints and never reset)
host_inst_rate                                 224849                       # Simulator instruction rate (inst/s)
host_mem_usage                               16986512                       # Number of bytes of host memory used
host_op_rate                                   258383                       # Simulator op (including micro ops) rate (op/s)
host_seconds                                     4.45                       # Real time elapsed on the host
host_tick_rate                               93020846                       # Simulator tick rate (ticks/s)
sim_freq                                 1000000000000                       # Frequency of simulated ticks
sim_insts                                     1000024                       # Number of instructions simulated
sim_ops                                       1149183                       # Number of ops (including micro ops) simulated
sim_seconds                                  0.000414                       # Number of seconds simulated
sim_ticks                                   413719900                       # Number of ticks simulated
system.cpu.Branches                                 6                       # Number of branches fetched
system.cpu.committedInsts                          22                       # Number of instructions committed
system.cpu.committedOps                            25                       # Number of ops (including micro ops) committed
system.cpu.idle_fraction                            0                       # Percentage of idle cycles
system.cpu.not_idle_fraction                        1                       # Percentage of non-idle cycles
system.cpu.numCycles                               25                       # number of cpu cycles simulated
system.cpu.numWorkItemsCompleted                    0                       # number of work items this cpu completed
system.cpu.numWorkItemsStarted                      0                       # number of work items this cpu started
system.cpu.num_busy_cycles                         25                       # Number of busy cycles
system.cpu.num_cc_register_reads                    9                       # number of times the CC registers were read
system.cpu.num_cc_register_writes                   9                       # number of times the CC registers were written
system.cpu.num_conditional_control_insts            4                       # number of instructions that are conditional controls
system.cpu.num_fp_alu_accesses                      0                       # Number of float alu accesses
system.cpu.num_fp_insts                             0                       # number of float instructions
system.cpu.num_fp_register_reads                    0                       # number of times the floating registers were read
system.cpu.num_fp_register_writes                   0                       # number of times the floating registers were written
system.cpu.num_func_calls                           1                       # number of times a function call or return occured
system.cpu.num_idle_cycles                          0                       # Number of idle cycles
system.cpu.num_int_alu_accesses                    21                       # Number of integer alu accesses
system.cpu.num_int_insts                           21                       # number of integer instructions
system.cpu.num_int_register_reads                  28                       # number of times the integer registers were read
system.cpu.num_int_register_writes                 20                       # number of times the integer registers were written
system.cpu.num_load_insts                           7                       # Number of load instructions
system.cpu.num_mem_refs                             9                       # number of memory refs
system.cpu.num_store_insts                          2                       # Number of store instructions
system.cpu.num_vec_alu_accesses                     0                       # Number of vector alu accesses
system.cpu.num_vec_insts                            0                       # number of vector instructions
system.cpu.num_vec_register_reads                   0                       # number of times the vector registers were read
system.cpu.num_vec_register_writes                  0                       # number of times the vector registers were written
system.cpu.op_class::No_OpClass                     0      0.00%      0.00% # Class of executed instruction
system.cpu.op_class::IntAlu                        15     60.00%     60.00% # Class of executed instruction
system.cpu.op_class::IntMult                        1      4.00%     64.00% # Class of executed instruction
system.cpu.op_class::IntDiv                         0      0.00%     64.00% # Class of executed instruction
system.cpu.op_class::FloatAdd                       0      0.00%     64.00% # Class of executed instruction
system.cpu.op_class::FloatCmp                       0      0.00%     64.00% # Class of executed instruction
system.cpu.op_class::FloatCvt                       0      0.00%     64.00% # Class of executed instruction
system.cpu.op_class::FloatMult                      0      0.00%     64.00% # Class of executed instruction
system.cpu.op_class::FloatMultAcc                   0      0.00%     64.00% # Class of executed instruction
system.cpu.op_class::FloatDiv                       0      0.00%     64.00% # Class of executed instruction
system.cpu.op_class::FloatMisc                      0      0.00%     64.00% # Class of executed instruction
system.cpu.op_class::FloatSqrt                      0      0.00%     64.00% # Class of executed instruction
system.cpu.op_class::SimdAdd                        0      0.00%     64.00% # Class of executed instruction
system.cpu.op_class::SimdAddAcc                     0      0.00%     64.00% # Class of executed instruction
system.cpu.op_class::SimdAlu                        0      0.00%     64.00% # Class of executed instruction
system.cpu.op_class::SimdCmp                        0      0.00%     64.00% # Class of executed instruction
system.cpu.op_class::SimdCvt                        0      0.00%     64.00% # Class of executed instruction
system.cpu.op_class::SimdMisc                       0      0.00%     64.00% # Class of executed instruction
system.cpu.op_class::SimdMult                       0      0.00%     64.00% # Class of executed instruction
system.cpu.op_class::SimdMultAcc                    0      0.00%     64.00% # Class of executed instruction
system.cpu.op_class::SimdShift                      0      0.00%     64.00% # Class of executed instruction
system.cpu.op_class::SimdShiftAcc                   0      0.00%     64.00% # Class of executed instruction
system.cpu.op_class::SimdDiv                        0      0.00%     64.00% # Class of executed instruction
system.cpu.op_class::SimdSqrt                       0      0.00%     64.00% # Class of executed instruction
system.cpu.op_class::SimdFloatAdd                   0      0.00%     64.00% # Class of executed instruction
system.cpu.op_class::SimdFloatAlu                   0      0.00%     64.00% # Class of executed instruction
system.cpu.op_class::SimdFloatCmp                   0      0.00%     64.00% # Class of executed instruction
system.cpu.op_class::SimdFloatCvt                   0      0.00%     64.00% # Class of executed instruction
system.cpu.op_class::SimdFloatDiv                   0      0.00%     64.00% # Class of executed instruction
system.cpu.op_class::SimdFloatMisc                  0      0.00%     64.00% # Class of executed instruction
system.cpu.op_class::SimdFloatMult                  0      0.00%     64.00% # Class of executed instruction
system.cpu.op_class::SimdFloatMultAcc               0      0.00%     64.00% # Class of executed instruction
system.cpu.op_class::SimdFloatSqrt                  0      0.00%     64.00% # Class of executed instruction
system.cpu.op_class::SimdReduceAdd                  0      0.00%     64.00% # Class of executed instruction
system.cpu.op_class::SimdReduceAlu                  0      0.00%     64.00% # Class of executed instruction
system.cpu.op_class::SimdReduceCmp                  0      0.00%     64.00% # Class of executed instruction
system.cpu.op_class::SimdFloatReduceAdd             0      0.00%     64.00% # Class of executed instruction
system.cpu.op_class::SimdFloatReduceCmp             0      0.00%     64.00% # Class of executed instruction
system.cpu.op_class::SimdAes                        0      0.00%     64.00% # Class of executed instruction
system.cpu.op_class::SimdAesMix                     0      0.00%     64.00% # Class of executed instruction
system.cpu.op_class::SimdSha1Hash                   0      0.00%     64.00% # Class of executed instruction
system.cpu.op_class::SimdSha1Hash2                  0      0.00%     64.00% # Class of executed instruction
system.cpu.op_class::SimdSha256Hash                 0      0.00%     64.00% # Class of executed instruction
system.cpu.op_class::SimdSha256Hash2                0      0.00%     64.00% # Class of executed instruction
system.cpu.op_class::SimdShaSigma2                  0      0.00%     64.00% # Class of executed instruction
system.cpu.op_class::SimdShaSigma3                  0      0.00%     64.00% # Class of executed instruction
system.cpu.op_class::SimdPredAlu                    0      0.00%     64.00% # Class of executed instruction
system.cpu.op_class::MemRead                        7     28.00%     92.00% # Class of executed instruction
system.cpu.op_class::MemWrite                       2      8.00%    100.00% # Class of executed instruction
system.cpu.op_class::FloatMemRead                   0      0.00%    100.00% # Class of executed instruction
system.cpu.op_class::FloatMemWrite                  0      0.00%    100.00% # Class of executed instruction
system.cpu.op_class::IprAccess                      0      0.00%    100.00% # Class of executed instruction
system.cpu.op_class::InstPrefetch                   0      0.00%    100.00% # Class of executed instruction
system.cpu.op_class::total                         25                       # Class of executed instruction
system.cpu.workload.numSyscalls                     0                       # Number of system calls
system.membus.snoop_filter.hit_multi_requests            0                       # Number of requests hitting in the snoop filter with multiple (>1) holders of the requested data.
system.membus.snoop_filter.hit_multi_snoops            0                       # Number of snoops hitting in the snoop filter with multiple (>1) holders of the requested data.
system.membus.snoop_filter.hit_single_requests            0                       # Number of requests hitting in the snoop filter with a single holder of the requested data.
system.membus.snoop_filter.hit_single_snoops            0                       # Number of snoops hitting in the snoop filter with a single holder of the requested data.
system.membus.snoop_filter.tot_requests           430                       # Total number of requests made to the snoop filter.
system.membus.snoop_filter.tot_snoops               0                       # Total number of snoops made to the snoop filter.
system.switch_cpus.cc_regfile_reads            508938                       # number of cc regfile reads
system.switch_cpus.cc_regfile_writes           504234                       # number of cc regfile writes
system.switch_cpus.committedInsts             1000002                       # Number of Instructions Simulated
system.switch_cpus.committedOps               1149158                       # Number of Ops (including micro ops) Simulated
system.switch_cpus.cpi                       1.034272                       # CPI: Cycles Per Instruction
system.switch_cpus.cpi_total                 1.034272                       # CPI: Total CPI of All Threads
system.switch_cpus.idleCycles                    7053                       # Total number of cycles that the CPU has spent unscheduled due to idling
system.switch_cpus.iew.branchMispredicts        23605                       # Number of branch mispredicts detected at execute
system.switch_cpus.iew.exec_branches           285212                       # Number of branches executed
system.switch_cpus.iew.exec_nop                  4457                       # number of nop insts executed
system.switch_cpus.iew.exec_rate             1.557937                       # Inst execution rate
system.switch_cpus.iew.exec_refs               558075                       # number of memory reference insts executed
system.switch_cpus.iew.exec_stores             209905                       # Number of stores executed
system.switch_cpus.iew.exec_swp                     0                       # number of swp insts executed
system.switch_cpus.iew.iewBlockCycles          336729                       # Number of cycles IEW is blocking
system.switch_cpus.iew.iewDispLoadInsts        585719                       # Number of dispatched load instructions
system.switch_cpus.iew.iewDispNonSpecInsts           26                       # Number of dispatched non-speculative instructions
system.switch_cpus.iew.iewDispSquashedInsts            0                       # Number of squashed instructions skipped by dispatch
system.switch_cpus.iew.iewDispStoreInsts       381980                       # Number of dispatched store instructions
system.switch_cpus.iew.iewDispatchedInsts      2547025                       # Number of instructions dispatched to IQ
system.switch_cpus.iew.iewExecLoadInsts        348170                       # Number of load instructions executed
system.switch_cpus.iew.iewExecSquashedInsts        27423                       # Number of squashed instructions skipped in execute
system.switch_cpus.iew.iewExecutedInsts       1611334                       # Number of executed instructions
system.switch_cpus.iew.iewIQFullEvents              0                       # Number of times the IQ has become full, causing a stall
system.switch_cpus.iew.iewIdleCycles                0                       # Number of cycles IEW is idle
system.switch_cpus.iew.iewLSQFullEvents             0                       # Number of times the LSQ has become full, causing a stall
system.switch_cpus.iew.iewSquashCycles          19002                       # Number of cycles IEW is squashing
system.switch_cpus.iew.iewUnblockCycles             0                       # Number of cycles IEW is unblocking
system.switch_cpus.iew.memOrderViolationEvents          105                       # Number of memory order violations
system.switch_cpus.iew.predictedNotTakenIncorrect        14920                       # Number of branches that were predicted not taken incorrectly
system.switch_cpus.iew.predictedTakenIncorrect         8685                       # Number of branches that were predicted taken incorrectly
system.switch_cpus.iew.wb_consumers           1903804                       # num instructions consuming a value
system.switch_cpus.iew.wb_count               1593098                       # cumulative count of insts written-back
system.switch_cpus.iew.wb_fanout             0.533131                       # average fanout of values written-back
system.switch_cpus.iew.wb_producers           1014976                       # num instructions producing a value
system.switch_cpus.iew.wb_rate               1.540306                       # insts written-back per cycle
system.switch_cpus.iew.wb_sent                1603490                       # cumulative count of insts sent to commit
system.switch_cpus.int_regfile_reads          1788238                       # number of integer regfile reads
system.switch_cpus.int_regfile_writes         1161029                       # number of integer regfile writes
system.switch_cpus.ipc                       0.966864                       # IPC: Instructions Per Cycle
system.switch_cpus.ipc_total                 0.966864                       # IPC: Total IPC of All Threads
system.switch_cpus.iq.FU_type_0::No_OpClass          272      0.02%      0.02% # Type of FU issued
system.switch_cpus.iq.FU_type_0::IntAlu       1043048     63.65%     63.67% # Type of FU issued
system.switch_cpus.iq.FU_type_0::IntMult        11273      0.69%     64.35% # Type of FU issued
system.switch_cpus.iq.FU_type_0::IntDiv             2      0.00%     64.35% # Type of FU issued
system.switch_cpus.iq.FU_type_0::FloatAdd            0      0.00%     64.35% # Type of FU issued
system.switch_cpus.iq.FU_type_0::FloatCmp            0      0.00%     64.35% # Type of FU issued
system.switch_cpus.iq.FU_type_0::FloatCvt            0      0.00%     64.35% # Type of FU issued
system.switch_cpus.iq.FU_type_0::FloatMult            0      0.00%     64.35% # Type of FU issued
system.switch_cpus.iq.FU_type_0::FloatMultAcc            0      0.00%     64.35% # Type of FU issued
system.switch_cpus.iq.FU_type_0::FloatDiv            0      0.00%     64.35% # Type of FU issued
system.switch_cpus.iq.FU_type_0::FloatMisc            0      0.00%     64.35% # Type of FU issued
system.switch_cpus.iq.FU_type_0::FloatSqrt            0      0.00%     64.35% # Type of FU issued
system.switch_cpus.iq.FU_type_0::SimdAdd            0      0.00%     64.35% # Type of FU issued
system.switch_cpus.iq.FU_type_0::SimdAddAcc            0      0.00%     64.35% # Type of FU issued
system.switch_cpus.iq.FU_type_0::SimdAlu            0      0.00%     64.35% # Type of FU issued
system.switch_cpus.iq.FU_type_0::SimdCmp            0      0.00%     64.35% # Type of FU issued
system.switch_cpus.iq.FU_type_0::SimdCvt            0      0.00%     64.35% # Type of FU issued
system.switch_cpus.iq.FU_type_0::SimdMisc            0      0.00%     64.35% # Type of FU issued
system.switch_cpus.iq.FU_type_0::SimdMult            0      0.00%     64.35% # Type of FU issued
system.switch_cpus.iq.FU_type_0::SimdMultAcc            0      0.00%     64.35% # Type of FU issued
system.switch_cpus.iq.FU_type_0::SimdShift            0      0.00%     64.35% # Type of FU issued
system.switch_cpus.iq.FU_type_0::SimdShiftAcc            0      0.00%     64.35% # Type of FU issued
system.switch_cpus.iq.FU_type_0::SimdDiv            0      0.00%     64.35% # Type of FU issued
system.switch_cpus.iq.FU_type_0::SimdSqrt            0      0.00%     64.35% # Type of FU issued
system.switch_cpus.iq.FU_type_0::SimdFloatAdd            0      0.00%     64.35% # Type of FU issued
system.switch_cpus.iq.FU_type_0::SimdFloatAlu            0      0.00%     64.35% # Type of FU issued
system.switch_cpus.iq.FU_type_0::SimdFloatCmp            0      0.00%     64.35% # Type of FU issued
system.switch_cpus.iq.FU_type_0::SimdFloatCvt            0      0.00%     64.35% # Type of FU issued
system.switch_cpus.iq.FU_type_0::SimdFloatDiv            0      0.00%     64.35% # Type of FU issued
system.switch_cpus.iq.FU_type_0::SimdFloatMisc            0      0.00%     64.35% # Type of FU issued
system.switch_cpus.iq.FU_type_0::SimdFloatMult            0      0.00%     64.35% # Type of FU issued
system.switch_cpus.iq.FU_type_0::SimdFloatMultAcc            0      0.00%     64.35% # Type of FU issued
system.switch_cpus.iq.FU_type_0::SimdFloatSqrt            0      0.00%     64.35% # Type of FU issued
system.switch_cpus.iq.FU_type_0::SimdReduceAdd            0      0.00%     64.35% # Type of FU issued
system.switch_cpus.iq.FU_type_0::SimdReduceAlu            0      0.00%     64.35% # Type of FU issued
system.switch_cpus.iq.FU_type_0::SimdReduceCmp            0      0.00%     64.35% # Type of FU issued
system.switch_cpus.iq.FU_type_0::SimdFloatReduceAdd            0      0.00%     64.35% # Type of FU issued
system.switch_cpus.iq.FU_type_0::SimdFloatReduceCmp            0      0.00%     64.35% # Type of FU issued
system.switch_cpus.iq.FU_type_0::SimdAes            0      0.00%     64.35% # Type of FU issued
system.switch_cpus.iq.FU_type_0::SimdAesMix            0      0.00%     64.35% # Type of FU issued
system.switch_cpus.iq.FU_type_0::SimdSha1Hash            0      0.00%     64.35% # Type of FU issued
system.switch_cpus.iq.FU_type_0::SimdSha1Hash2            0      0.00%     64.35% # Type of FU issued
system.switch_cpus.iq.FU_type_0::SimdSha256Hash            0      0.00%     64.35% # Type of FU issued
system.switch_cpus.iq.FU_type_0::SimdSha256Hash2            0      0.00%     64.35% # Type of FU issued
system.switch_cpus.iq.FU_type_0::SimdShaSigma2            0      0.00%     64.35% # Type of FU issued
system.switch_cpus.iq.FU_type_0::SimdShaSigma3            0      0.00%     64.35% # Type of FU issued
system.switch_cpus.iq.FU_type_0::SimdPredAlu            0      0.00%     64.35% # Type of FU issued
system.switch_cpus.iq.FU_type_0::MemRead       364330     22.23%     86.59% # Type of FU issued
system.switch_cpus.iq.FU_type_0::MemWrite       219834     13.41%    100.00% # Type of FU issued
system.switch_cpus.iq.FU_type_0::FloatMemRead            0      0.00%    100.00% # Type of FU issued
system.switch_cpus.iq.FU_type_0::FloatMemWrite            0      0.00%    100.00% # Type of FU issued
system.switch_cpus.iq.FU_type_0::IprAccess            0      0.00%    100.00% # Type of FU issued
system.switch_cpus.iq.FU_type_0::InstPrefetch            0      0.00%    100.00% # Type of FU issued
system.switch_cpus.iq.FU_type_0::total        1638759                       # Type of FU issued
system.switch_cpus.iq.fp_alu_accesses               0                       # Number of floating point alu accesses
system.switch_cpus.iq.fp_inst_queue_reads            0                       # Number of floating instruction queue reads
system.switch_cpus.iq.fp_inst_queue_wakeup_accesses            0                       # Number of floating instruction queue wakeup accesses
system.switch_cpus.iq.fp_inst_queue_writes            0                       # Number of floating instruction queue writes
system.switch_cpus.iq.fu_busy_cnt              808758                       # FU busy when requested
system.switch_cpus.iq.fu_busy_rate           0.493519                       # FU busy rate (busy events/executed inst)
system.switch_cpus.iq.fu_full::No_OpClass            0      0.00%      0.00% # attempts to use FU when none available
system.switch_cpus.iq.fu_full::IntAlu          470051     58.12%     58.12% # attempts to use FU when none available
system.switch_cpus.iq.fu_full::IntMult              0      0.00%     58.12% # attempts to use FU when none available
system.switch_cpus.iq.fu_full::IntDiv               0      0.00%     58.12% # attempts to use FU when none available
system.switch_cpus.iq.fu_full::FloatAdd             0      0.00%     58.12% # attempts to use FU when none available
system.switch_cpus.iq.fu_full::FloatCmp             0      0.00%     58.12% # attempts to use FU when none available
system.switch_cpus.iq.fu_full::FloatCvt             0      0.00%     58.12% # attempts to use FU when none available
system.switch_cpus.iq.fu_full::FloatMult            0      0.00%     58.12% # attempts to use FU when none available
system.switch_cpus.iq.fu_full::FloatMultAcc            0      0.00%     58.12% # attempts to use FU when none available
system.switch_cpus.iq.fu_full::FloatDiv             0      0.00%     58.12% # attempts to use FU when none available
system.switch_cpus.iq.fu_full::FloatMisc            0      0.00%     58.12% # attempts to use FU when none available
system.switch_cpus.iq.fu_full::FloatSqrt            0      0.00%     58.12% # attempts to use FU when none available
system.switch_cpus.iq.fu_full::SimdAdd              0      0.00%     58.12% # attempts to use FU when none available
system.switch_cpus.iq.fu_full::SimdAddAcc            0      0.00%     58.12% # attempts to use FU when none available
system.switch_cpus.iq.fu_full::SimdAlu              0      0.00%     58.12% # attempts to use FU when none available
system.switch_cpus.iq.fu_full::SimdCmp              0      0.00%     58.12% # attempts to use FU when none available
system.switch_cpus.iq.fu_full::SimdCvt              0      0.00%     58.12% # attempts to use FU when none available
system.switch_cpus.iq.fu_full::SimdMisc             0      0.00%     58.12% # attempts to use FU when none available
system.switch_cpus.iq.fu_full::SimdMult             0      0.00%     58.12% # attempts to use FU when none available
system.switch_cpus.iq.fu_full::SimdMultAcc            0      0.00%     58.12% # attempts to use FU when none available
system.switch_cpus.iq.fu_full::SimdShift            0      0.00%     58.12% # attempts to use FU when none available
system.switch_cpus.iq.fu_full::SimdShiftAcc            0      0.00%     58.12% # attempts to use FU when none available
system.switch_cpus.iq.fu_full::SimdDiv              0      0.00%     58.12% # attempts to use FU when none available
system.switch_cpus.iq.fu_full::SimdSqrt             0      0.00%     58.12% # attempts to use FU when none available
system.switch_cpus.iq.fu_full::SimdFloatAdd            0      0.00%     58.12% # attempts to use FU when none available
system.switch_cpus.iq.fu_full::SimdFloatAlu            0      0.00%     58.12% # attempts to use FU when none available
system.switch_cpus.iq.fu_full::SimdFloatCmp            0      0.00%     58.12% # attempts to use FU when none available
system.switch_cpus.iq.fu_full::SimdFloatCvt            0      0.00%     58.12% # attempts to use FU when none available
system.switch_cpus.iq.fu_full::SimdFloatDiv            0      0.00%     58.12% # attempts to use FU when none available
system.switch_cpus.iq.fu_full::SimdFloatMisc            0      0.00%     58.12% # attempts to use FU when none available
system.switch_cpus.iq.fu_full::SimdFloatMult            0      0.00%     58.12% # attempts to use FU when none available
system.switch_cpus.iq.fu_full::SimdFloatMultAcc            0      0.00%     58.12% # attempts to use FU when none available
system.switch_cpus.iq.fu_full::SimdFloatSqrt            0      0.00%     58.12% # attempts to use FU when none available
system.switch_cpus.iq.fu_full::SimdReduceAdd            0      0.00%     58.12% # attempts to use FU when none available
system.switch_cpus.iq.fu_full::SimdReduceAlu            0      0.00%     58.12% # attempts to use FU when none available
system.switch_cpus.iq.fu_full::SimdReduceCmp            0      0.00%     58.12% # attempts to use FU when none available
system.switch_cpus.iq.fu_full::SimdFloatReduceAdd            0      0.00%     58.12% # attempts to use FU when none available
system.switch_cpus.iq.fu_full::SimdFloatReduceCmp            0      0.00%     58.12% # attempts to use FU when none available
system.switch_cpus.iq.fu_full::SimdAes              0      0.00%     58.12% # attempts to use FU when none available
system.switch_cpus.iq.fu_full::SimdAesMix            0      0.00%     58.12% # attempts to use FU when none available
system.switch_cpus.iq.fu_full::SimdSha1Hash            0      0.00%     58.12% # attempts to use FU when none available
system.switch_cpus.iq.fu_full::SimdSha1Hash2            0      0.00%     58.12% # attempts to use FU when none available
system.switch_cpus.iq.fu_full::SimdSha256Hash            0      0.00%     58.12% # attempts to use FU when none available
system.switch_cpus.iq.fu_full::SimdSha256Hash2            0      0.00%     58.12% # attempts to use FU when none available
system.switch_cpus.iq.fu_full::SimdShaSigma2            0      0.00%     58.12% # attempts to use FU when none available
system.switch_cpus.iq.fu_full::SimdShaSigma3            0      0.00%     58.12% # attempts to use FU when none available
system.switch_cpus.iq.fu_full::SimdPredAlu            0      0.00%     58.12% # attempts to use FU when none available
system.switch_cpus.iq.fu_full::MemRead         214145     26.48%     84.60% # attempts to use FU when none available
system.switch_cpus.iq.fu_full::MemWrite        124562     15.40%    100.00% # attempts to use FU when none available
system.switch_cpus.iq.fu_full::FloatMemRead            0      0.00%    100.00% # attempts to use FU when none available
system.switch_cpus.iq.fu_full::FloatMemWrite            0      0.00%    100.00% # attempts to use FU when none available
system.switch_cpus.iq.fu_full::IprAccess            0      0.00%    100.00% # attempts to use FU when none available
system.switch_cpus.iq.fu_full::InstPrefetch            0      0.00%    100.00% # attempts to use FU when none available
system.switch_cpus.iq.int_alu_accesses        2447245                       # Number of integer alu accesses
system.switch_cpus.iq.int_inst_queue_reads      5300632                       # Number of integer instruction queue reads
system.switch_cpus.iq.int_inst_queue_wakeup_accesses      1593098                       # Number of integer instruction queue wakeup accesses
system.switch_cpus.iq.int_inst_queue_writes      3936072                       # Number of integer instruction queue writes
system.switch_cpus.iq.iqInstsAdded            2542542                       # Number of instructions added to the IQ (excludes non-spec)
system.switch_cpus.iq.iqInstsIssued           1638759                       # Number of instructions issued
system.switch_cpus.iq.iqNonSpecInstsAdded           26                       # Number of non-speculative instructions added to the IQ
system.switch_cpus.iq.iqSquashedInstsExamined      1393400                       # Number of squashed instructions iterated over during squash; mainly for profiling
system.switch_cpus.iq.iqSquashedInstsIssued       187137                       # Number of squashed instructions issued
system.switch_cpus.iq.iqSquashedNonSpecRemoved           26                       # Number of squashed non-spec instructions that were removed
system.switch_cpus.iq.iqSquashedOperandsExamined      1445034                       # Number of squashed operands that are examined and possibly removed from graph
system.switch_cpus.iq.issued_per_cycle::samples      1027221                       # Number of insts issued each cycle
system.switch_cpus.iq.issued_per_cycle::mean     1.595332                       # Number of insts issued each cycle
system.switch_cpus.iq.issued_per_cycle::stdev     1.545781                       # Number of insts issued each cycle
system.switch_cpus.iq.issued_per_cycle::underflows            0      0.00%      0.00% # Number of insts issued each cycle
system.switch_cpus.iq.issued_per_cycle::0       452944     44.09%     44.09% # Number of insts issued each cycle
system.switch_cpus.iq.issued_per_cycle::1        44585      4.34%     48.43% # Number of insts issued each cycle
system.switch_cpus.iq.issued_per_cycle::2       109747     10.68%     59.12% # Number of insts issued each cycle
system.switch_cpus.iq.issued_per_cycle::3       306026     29.79%     88.91% # Number of insts issued each cycle
system.switch_cpus.iq.issued_per_cycle::4       112993     11.00%     99.91% # Number of insts issued each cycle
system.switch_cpus.iq.issued_per_cycle::5          926      0.09%    100.00% # Number of insts issued each cycle
system.switch_cpus.iq.issued_per_cycle::6            0      0.00%    100.00% # Number of insts issued each cycle
system.switch_cpus.iq.issued_per_cycle::7            0      0.00%    100.00% # Number of insts issued each cycle
system.switch_cpus.iq.issued_per_cycle::8            0      0.00%    100.00% # Number of insts issued each cycle
system.switch_cpus.iq.issued_per_cycle::overflows            0      0.00%    100.00% # Number of insts issued each cycle
system.switch_cpus.iq.issued_per_cycle::min_value            0                       # Number of insts issued each cycle
system.switch_cpus.iq.issued_per_cycle::max_value            5                       # Number of insts issued each cycle
system.switch_cpus.iq.issued_per_cycle::total      1027221                       # Number of insts issued each cycle
system.switch_cpus.iq.rate                   1.584453                       # Inst issue rate
system.switch_cpus.iq.vec_alu_accesses              0                       # Number of vector alu accesses
system.switch_cpus.iq.vec_inst_queue_reads            0                       # Number of vector instruction queue reads
system.switch_cpus.iq.vec_inst_queue_wakeup_accesses            0                       # Number of vector instruction queue wakeup accesses
system.switch_cpus.iq.vec_inst_queue_writes            0                       # Number of vector instruction queue writes
system.switch_cpus.memDep0.conflictingLoads       269845                       # Number of conflicting loads.
system.switch_cpus.memDep0.conflictingStores       201023                       # Number of conflicting stores.
system.switch_cpus.memDep0.insertedLoads       585719                       # Number of loads inserted to the mem dependence unit.
system.switch_cpus.memDep0.insertedStores       381980                       # Number of stores inserted to the mem dependence unit.
system.switch_cpus.misc_regfile_reads         3794289                       # number of misc regfile reads
system.switch_cpus.misc_regfile_writes              1                       # number of misc regfile writes
system.switch_cpus.numCycles                  1034274                       # number of cpu cycles simulated
system.switch_cpus.numWorkItemsCompleted            0                       # number of work items this cpu completed
system.switch_cpus.numWorkItemsStarted              0                       # number of work items this cpu started
system.switch_cpus.timesIdled                      58                       # Number of times that the entire CPU went into an idle state and unscheduled itself
system.switch_cpus.vec_regfile_writes              44                       # number of vector regfile writes
system.tol2bus.snoop_filter.hit_multi_requests            0                       # Number of requests hitting in the snoop filter with multiple (>1) holders of the requested data.
system.tol2bus.snoop_filter.hit_multi_snoops            0                       # Number of snoops hitting in the snoop filter with multiple (>1) holders of the requested data.
system.tol2bus.snoop_filter.hit_single_requests           82                       # Number of requests hitting in the snoop filter with a single holder of the requested data.
system.tol2bus.snoop_filter.hit_single_snoops            7                       # Number of snoops hitting in the snoop filter with a single holder of the requested data.
system.tol2bus.snoop_filter.tot_requests          505                       # Total number of requests made to the snoop filter.
system.tol2bus.snoop_filter.tot_snoops              7                       # Total number of snoops made to the snoop filter.
system.clk_domain.clock                          1000                       # Clock period in ticks
system.cpu.dcache.demand_hits::.cpu.data            5                       # number of demand (read+write) hits
system.cpu.dcache.demand_hits::.switch_cpus.data       395383                       # number of demand (read+write) hits
system.cpu.dcache.demand_hits::total           395388                       # number of demand (read+write) hits
system.cpu.dcache.overall_hits::.cpu.data            5                       # number of overall hits
system.cpu.dcache.overall_hits::.switch_cpus.data       395383                       # number of overall hits
system.cpu.dcache.overall_hits::total          395388                       # number of overall hits
system.cpu.dcache.demand_misses::.cpu.data            4                       # number of demand (read+write) misses
system.cpu.dcache.demand_misses::.switch_cpus.data         1220                       # number of demand (read+write) misses
system.cpu.dcache.demand_misses::total           1224                       # number of demand (read+write) misses
system.cpu.dcache.overall_misses::.cpu.data            4                       # number of overall misses
system.cpu.dcache.overall_misses::.switch_cpus.data         1220                       # number of overall misses
system.cpu.dcache.overall_misses::total          1224                       # number of overall misses
system.cpu.dcache.demand_miss_latency::.switch_cpus.data     68488798                       # number of demand (read+write) miss cycles
system.cpu.dcache.demand_miss_latency::total     68488798                       # number of demand (read+write) miss cycles
system.cpu.dcache.overall_miss_latency::.switch_cpus.data     68488798                       # number of overall miss cycles
system.cpu.dcache.overall_miss_latency::total     68488798                       # number of overall miss cycles
system.cpu.dcache.demand_accesses::.cpu.data            9                       # number of demand (read+write) accesses
system.cpu.dcache.demand_accesses::.switch_cpus.data       396603                       # number of demand (read+write) accesses
system.cpu.dcache.demand_accesses::total       396612                       # number of demand (read+write) accesses
system.cpu.dcache.overall_accesses::.cpu.data            9                       # number of overall (read+write) accesses
system.cpu.dcache.overall_accesses::.switch_cpus.data       396603                       # number of overall (read+write) accesses
system.cpu.dcache.overall_accesses::total       396612                       # number of overall (read+write) accesses
system.cpu.dcache.demand_miss_rate::.cpu.data     0.444444                       # miss rate for demand accesses
system.cpu.dcache.demand_miss_rate::.switch_cpus.data     0.003076                       # miss rate for demand accesses
system.cpu.dcache.demand_miss_rate::total     0.003086                       # miss rate for demand accesses
system.cpu.dcache.overall_miss_rate::.cpu.data     0.444444                       # miss rate for overall accesses
system.cpu.dcache.overall_miss_rate::.switch_cpus.data     0.003076                       # miss rate for overall accesses
system.cpu.dcache.overall_miss_rate::total     0.003086                       # miss rate for overall accesses
system.cpu.dcache.demand_avg_miss_latency::.switch_cpus.data 56138.359016                       # average overall miss latency
system.cpu.dcache.demand_avg_miss_latency::total 55954.900327                       # average overall miss latency
system.cpu.dcache.overall_avg_miss_latency::.switch_cpus.data 56138.359016                       # average overall miss latency
system.cpu.dcache.overall_avg_miss_latency::total 55954.900327                       # average overall miss latency
system.cpu.dcache.blocked_cycles::no_mshrs            0                       # number of cycles access was blocked
system.cpu.dcache.blocked_cycles::no_targets         1384                       # number of cycles access was blocked
system.cpu.dcache.blocked::no_mshrs                 0                       # number of cycles access was blocked
system.cpu.dcache.blocked::no_targets              13                       # number of cycles access was blocked
system.cpu.dcache.avg_blocked_cycles::no_mshrs          nan                       # average number of cycles each access was blocked
system.cpu.dcache.avg_blocked_cycles::no_targets   106.461538                       # average number of cycles each access was blocked
system.cpu.dcache.writebacks::.writebacks           82                       # number of writebacks
system.cpu.dcache.writebacks::total                82                       # number of writebacks
system.cpu.dcache.demand_mshr_hits::.switch_cpus.data          886                       # number of demand (read+write) MSHR hits
system.cpu.dcache.demand_mshr_hits::total          886                       # number of demand (read+write) MSHR hits
system.cpu.dcache.overall_mshr_hits::.switch_cpus.data          886                       # number of overall MSHR hits
system.cpu.dcache.overall_mshr_hits::total          886                       # number of overall MSHR hits
system.cpu.dcache.demand_mshr_misses::.switch_cpus.data          334                       # number of demand (read+write) MSHR misses
system.cpu.dcache.demand_mshr_misses::total          334                       # number of demand (read+write) MSHR misses
system.cpu.dcache.overall_mshr_misses::.switch_cpus.data          334                       # number of overall MSHR misses
system.cpu.dcache.overall_mshr_misses::total          334                       # number of overall MSHR misses
system.cpu.dcache.demand_mshr_miss_latency::.switch_cpus.data     21569200                       # number of demand (read+write) MSHR miss cycles
system.cpu.dcache.demand_mshr_miss_latency::total     21569200                       # number of demand (read+write) MSHR miss cycles
system.cpu.dcache.overall_mshr_miss_latency::.switch_cpus.data     21569200                       # number of overall MSHR miss cycles
system.cpu.dcache.overall_mshr_miss_latency::total     21569200                       # number of overall MSHR miss cycles
system.cpu.dcache.demand_mshr_miss_rate::.switch_cpus.data     0.000842                       # mshr miss rate for demand accesses
system.cpu.dcache.demand_mshr_miss_rate::total     0.000842                       # mshr miss rate for demand accesses
system.cpu.dcache.overall_mshr_miss_rate::.switch_cpus.data     0.000842                       # mshr miss rate for overall accesses
system.cpu.dcache.overall_mshr_miss_rate::total     0.000842                       # mshr miss rate for overall accesses
system.cpu.dcache.demand_avg_mshr_miss_latency::.switch_cpus.data 64578.443114                       # average overall mshr miss latency
system.cpu.dcache.demand_avg_mshr_miss_latency::total 64578.443114                       # average overall mshr miss latency
system.cpu.dcache.overall_avg_mshr_miss_latency::.switch_cpus.data 64578.443114                       # average overall mshr miss latency
system.cpu.dcache.overall_avg_mshr_miss_latency::total 64578.443114                       # average overall mshr miss latency
system.cpu.dcache.replacements                     82                       # number of replacements
system.cpu.dcache.ReadReq_hits::.cpu.data            4                       # number of ReadReq hits
system.cpu.dcache.ReadReq_hits::.switch_cpus.data       221797                       # number of ReadReq hits
system.cpu.dcache.ReadReq_hits::total          221801                       # number of ReadReq hits
system.cpu.dcache.ReadReq_misses::.cpu.data            3                       # number of ReadReq misses
system.cpu.dcache.ReadReq_misses::.switch_cpus.data         1088                       # number of ReadReq misses
system.cpu.dcache.ReadReq_misses::total          1091                       # number of ReadReq misses
system.cpu.dcache.ReadReq_miss_latency::.switch_cpus.data     61358800                       # number of ReadReq miss cycles
system.cpu.dcache.ReadReq_miss_latency::total     61358800                       # number of ReadReq miss cycles
system.cpu.dcache.ReadReq_accesses::.cpu.data            7                       # number of ReadReq accesses(hits+misses)
system.cpu.dcache.ReadReq_accesses::.switch_cpus.data       222885                       # number of ReadReq accesses(hits+misses)
system.cpu.dcache.ReadReq_accesses::total       222892                       # number of ReadReq accesses(hits+misses)
system.cpu.dcache.ReadReq_miss_rate::.cpu.data     0.428571                       # miss rate for ReadReq accesses
system.cpu.dcache.ReadReq_miss_rate::.switch_cpus.data     0.004881                       # miss rate for ReadReq accesses
system.cpu.dcache.ReadReq_miss_rate::total     0.004895                       # miss rate for ReadReq accesses
system.cpu.dcache.ReadReq_avg_miss_latency::.switch_cpus.data 56395.955882                       # average ReadReq miss latency
system.cpu.dcache.ReadReq_avg_miss_latency::total 56240.879927                       # average ReadReq miss latency
system.cpu.dcache.ReadReq_mshr_hits::.switch_cpus.data          781                       # number of ReadReq MSHR hits
system.cpu.dcache.ReadReq_mshr_hits::total          781                       # number of ReadReq MSHR hits
system.cpu.dcache.ReadReq_mshr_misses::.switch_cpus.data          307                       # number of ReadReq MSHR misses
system.cpu.dcache.ReadReq_mshr_misses::total          307                       # number of ReadReq MSHR misses
system.cpu.dcache.ReadReq_mshr_miss_latency::.switch_cpus.data     19676000                       # number of ReadReq MSHR miss cycles
system.cpu.dcache.ReadReq_mshr_miss_latency::total     19676000                       # number of ReadReq MSHR miss cycles
system.cpu.dcache.ReadReq_mshr_miss_rate::.switch_cpus.data     0.001377                       # mshr miss rate for ReadReq accesses
system.cpu.dcache.ReadReq_mshr_miss_rate::total     0.001377                       # mshr miss rate for ReadReq accesses
system.cpu.dcache.ReadReq_avg_mshr_miss_latency::.switch_cpus.data 64091.205212                       # average ReadReq mshr miss latency
system.cpu.dcache.ReadReq_avg_mshr_miss_latency::total 64091.205212                       # average ReadReq mshr miss latency
system.cpu.dcache.WriteReq_hits::.cpu.data            1                       # number of WriteReq hits
system.cpu.dcache.WriteReq_hits::.switch_cpus.data       173586                       # number of WriteReq hits
system.cpu.dcache.WriteReq_hits::total         173587                       # number of WriteReq hits
system.cpu.dcache.WriteReq_misses::.cpu.data            1                       # number of WriteReq misses
system.cpu.dcache.WriteReq_misses::.switch_cpus.data          132                       # number of WriteReq misses
system.cpu.dcache.WriteReq_misses::total          133                       # number of WriteReq misses
system.cpu.dcache.WriteReq_miss_latency::.switch_cpus.data      7129998                       # number of WriteReq miss cycles
system.cpu.dcache.WriteReq_miss_latency::total      7129998                       # number of WriteReq miss cycles
system.cpu.dcache.WriteReq_accesses::.cpu.data            2                       # number of WriteReq accesses(hits+misses)
system.cpu.dcache.WriteReq_accesses::.switch_cpus.data       173718                       # number of WriteReq accesses(hits+misses)
system.cpu.dcache.WriteReq_accesses::total       173720                       # number of WriteReq accesses(hits+misses)
system.cpu.dcache.WriteReq_miss_rate::.cpu.data     0.500000                       # miss rate for WriteReq accesses
system.cpu.dcache.WriteReq_miss_rate::.switch_cpus.data     0.000760                       # miss rate for WriteReq accesses
system.cpu.dcache.WriteReq_miss_rate::total     0.000766                       # miss rate for WriteReq accesses
system.cpu.dcache.WriteReq_avg_miss_latency::.switch_cpus.data 54015.136364                       # average WriteReq miss latency
system.cpu.dcache.WriteReq_avg_miss_latency::total 53609.007519                       # average WriteReq miss latency
system.cpu.dcache.WriteReq_mshr_hits::.switch_cpus.data          105                       # number of WriteReq MSHR hits
system.cpu.dcache.WriteReq_mshr_hits::total          105                       # number of WriteReq MSHR hits
system.cpu.dcache.WriteReq_mshr_misses::.switch_cpus.data           27                       # number of WriteReq MSHR misses
system.cpu.dcache.WriteReq_mshr_misses::total           27                       # number of WriteReq MSHR misses
system.cpu.dcache.WriteReq_mshr_miss_latency::.switch_cpus.data      1893200                       # number of WriteReq MSHR miss cycles
system.cpu.dcache.WriteReq_mshr_miss_latency::total      1893200                       # number of WriteReq MSHR miss cycles
system.cpu.dcache.WriteReq_mshr_miss_rate::.switch_cpus.data     0.000155                       # mshr miss rate for WriteReq accesses
system.cpu.dcache.WriteReq_mshr_miss_rate::total     0.000155                       # mshr miss rate for WriteReq accesses
system.cpu.dcache.WriteReq_avg_mshr_miss_latency::.switch_cpus.data 70118.518519                       # average WriteReq mshr miss latency
system.cpu.dcache.WriteReq_avg_mshr_miss_latency::total 70118.518519                       # average WriteReq mshr miss latency
system.cpu.dcache.power_state.pwrStateResidencyTicks::UNDEFINED 853786482400                       # Cumulative time (in ticks) in various power states
system.cpu.dcache.tags.tagsinuse           179.582057                       # Cycle average of tags in use
system.cpu.dcache.tags.total_refs               34122                       # Total number of references to valid blocks.
system.cpu.dcache.tags.sampled_refs                82                       # Sample count of references to valid blocks.
system.cpu.dcache.tags.avg_refs            416.121951                       # Average number of references to valid blocks.
system.cpu.dcache.tags.warmup_cycle      853372766400                       # Cycle when the warmup percentage was hit.
system.cpu.dcache.tags.occ_blocks::.cpu.data     3.960257                       # Average occupied blocks per requestor
system.cpu.dcache.tags.occ_blocks::.switch_cpus.data   175.621799                       # Average occupied blocks per requestor
system.cpu.dcache.tags.occ_percent::.cpu.data     0.015470                       # Average percentage of cache occupancy
system.cpu.dcache.tags.occ_percent::.switch_cpus.data     0.686023                       # Average percentage of cache occupancy
system.cpu.dcache.tags.occ_percent::total     0.701492                       # Average percentage of cache occupancy
system.cpu.dcache.tags.occ_task_id_blocks::1024          256                       # Occupied blocks per task id
system.cpu.dcache.tags.age_task_id_blocks_1024::0            7                       # Occupied blocks per task id
system.cpu.dcache.tags.age_task_id_blocks_1024::1           57                       # Occupied blocks per task id
system.cpu.dcache.tags.age_task_id_blocks_1024::2          192                       # Occupied blocks per task id
system.cpu.dcache.tags.occ_task_id_percent::1024            1                       # Percentage of cache occupancy per task id
system.cpu.dcache.tags.tag_accesses           3173234                       # Number of tag accesses
system.cpu.dcache.tags.data_accesses          3173234                       # Number of data accesses
system.cpu.dcache.tags.power_state.pwrStateResidencyTicks::UNDEFINED 853786482400                       # Cumulative time (in ticks) in various power states
system.cpu.dtb.instHits                             0                       # ITB inst hits
system.cpu.dtb.instMisses                           0                       # ITB inst misses
system.cpu.dtb.readHits                             0                       # DTB read hits
system.cpu.dtb.readMisses                           0                       # DTB read misses
system.cpu.dtb.writeHits                            0                       # DTB write hits
system.cpu.dtb.writeMisses                          0                       # DTB write misses
system.cpu.dtb.inserts                              0                       # Number of times an entry is inserted into the TLB
system.cpu.dtb.flushTlb                             2                       # Number of times complete TLB was flushed
system.cpu.dtb.flushTlbMva                          0                       # Number of times TLB was flushed by MVA
system.cpu.dtb.flushTlbMvaAsid                      0                       # Number of times TLB was flushed by MVA & ASID
system.cpu.dtb.flushTlbAsid                         0                       # Number of times TLB was flushed by ASID
system.cpu.dtb.flushedEntries                       0                       # Number of entries that have been flushed from TLB
system.cpu.dtb.alignFaults                          0                       # Number of TLB faults due to alignment restrictions
system.cpu.dtb.prefetchFaults                       0                       # Number of TLB faults due to prefetch
system.cpu.dtb.domainFaults                         0                       # Number of TLB faults due to domain restrictions
system.cpu.dtb.permsFaults                          0                       # Number of TLB faults due to permissions restrictions
system.cpu.dtb.readAccesses                         0                       # DTB read accesses
system.cpu.dtb.writeAccesses                        0                       # DTB write accesses
system.cpu.dtb.instAccesses                         0                       # ITB inst accesses
system.cpu.dtb.hits                                 0                       # Total TLB (inst and data) hits
system.cpu.dtb.misses                               0                       # Total TLB (inst and data) misses
system.cpu.dtb.accesses                             0                       # Total TLB (inst and data) accesses
system.cpu.dtb.stage2_mmu.stage2_tlb.instHits            0                       # ITB inst hits
system.cpu.dtb.stage2_mmu.stage2_tlb.instMisses            0                       # ITB inst misses
system.cpu.dtb.stage2_mmu.stage2_tlb.readHits            0                       # DTB read hits
system.cpu.dtb.stage2_mmu.stage2_tlb.readMisses            0                       # DTB read misses
system.cpu.dtb.stage2_mmu.stage2_tlb.writeHits            0                       # DTB write hits
system.cpu.dtb.stage2_mmu.stage2_tlb.writeMisses            0                       # DTB write misses
system.cpu.dtb.stage2_mmu.stage2_tlb.inserts            0                       # Number of times an entry is inserted into the TLB
system.cpu.dtb.stage2_mmu.stage2_tlb.flushTlb            0                       # Number of times complete TLB was flushed
system.cpu.dtb.stage2_mmu.stage2_tlb.flushTlbMva            0                       # Number of times TLB was flushed by MVA
system.cpu.dtb.stage2_mmu.stage2_tlb.flushTlbMvaAsid            0                       # Number of times TLB was flushed by MVA & ASID
system.cpu.dtb.stage2_mmu.stage2_tlb.flushTlbAsid            0                       # Number of times TLB was flushed by ASID
system.cpu.dtb.stage2_mmu.stage2_tlb.flushedEntries            0                       # Number of entries that have been flushed from TLB
system.cpu.dtb.stage2_mmu.stage2_tlb.alignFaults            0                       # Number of TLB faults due to alignment restrictions
system.cpu.dtb.stage2_mmu.stage2_tlb.prefetchFaults            0                       # Number of TLB faults due to prefetch
system.cpu.dtb.stage2_mmu.stage2_tlb.domainFaults            0                       # Number of TLB faults due to domain restrictions
system.cpu.dtb.stage2_mmu.stage2_tlb.permsFaults            0                       # Number of TLB faults due to permissions restrictions
system.cpu.dtb.stage2_mmu.stage2_tlb.readAccesses            0                       # DTB read accesses
system.cpu.dtb.stage2_mmu.stage2_tlb.writeAccesses            0                       # DTB write accesses
system.cpu.dtb.stage2_mmu.stage2_tlb.instAccesses            0                       # ITB inst accesses
system.cpu.dtb.stage2_mmu.stage2_tlb.hits            0                       # Total TLB (inst and data) hits
system.cpu.dtb.stage2_mmu.stage2_tlb.misses            0                       # Total TLB (inst and data) misses
system.cpu.dtb.stage2_mmu.stage2_tlb.accesses            0                       # Total TLB (inst and data) accesses
system.cpu.dtb.stage2_mmu.stage2_tlb.walker.walks            0                       # Table walker walks requested
system.cpu.dtb.stage2_mmu.stage2_tlb.walker.requestOrigin_Requested::Data            0                       # Table walker requests started/completed, data/inst
system.cpu.dtb.stage2_mmu.stage2_tlb.walker.requestOrigin_Requested::Inst            0                       # Table walker requests started/completed, data/inst
system.cpu.dtb.stage2_mmu.stage2_tlb.walker.requestOrigin_Requested::total            0                       # Table walker requests started/completed, data/inst
system.cpu.dtb.stage2_mmu.stage2_tlb.walker.requestOrigin_Completed::Data            0                       # Table walker requests started/completed, data/inst
system.cpu.dtb.stage2_mmu.stage2_tlb.walker.requestOrigin_Completed::Inst            0                       # Table walker requests started/completed, data/inst
system.cpu.dtb.stage2_mmu.stage2_tlb.walker.requestOrigin_Completed::total            0                       # Table walker requests started/completed, data/inst
system.cpu.dtb.stage2_mmu.stage2_tlb.walker.requestOrigin::total            0                       # Table walker requests started/completed, data/inst
system.cpu.dtb.stage2_mmu.stage2_tlb.walker.power_state.pwrStateResidencyTicks::UNDEFINED 853786482400                       # Cumulative time (in ticks) in various power states
system.cpu.dtb.walker.walks                         0                       # Table walker walks requested
system.cpu.dtb.walker.requestOrigin_Requested::Data            0                       # Table walker requests started/completed, data/inst
system.cpu.dtb.walker.requestOrigin_Requested::Inst            0                       # Table walker requests started/completed, data/inst
system.cpu.dtb.walker.requestOrigin_Requested::total            0                       # Table walker requests started/completed, data/inst
system.cpu.dtb.walker.requestOrigin_Completed::Data            0                       # Table walker requests started/completed, data/inst
system.cpu.dtb.walker.requestOrigin_Completed::Inst            0                       # Table walker requests started/completed, data/inst
system.cpu.dtb.walker.requestOrigin_Completed::total            0                       # Table walker requests started/completed, data/inst
system.cpu.dtb.walker.requestOrigin::total            0                       # Table walker requests started/completed, data/inst
system.cpu.dtb.walker.power_state.pwrStateResidencyTicks::UNDEFINED 853786482400                       # Cumulative time (in ticks) in various power states
system.cpu.dtb_walker_cache.blocked_cycles::no_mshrs            0                       # number of cycles access was blocked
system.cpu.dtb_walker_cache.blocked_cycles::no_targets            0                       # number of cycles access was blocked
system.cpu.dtb_walker_cache.blocked::no_mshrs            0                       # number of cycles access was blocked
system.cpu.dtb_walker_cache.blocked::no_targets            0                       # number of cycles access was blocked
system.cpu.dtb_walker_cache.avg_blocked_cycles::no_mshrs          nan                       # average number of cycles each access was blocked
system.cpu.dtb_walker_cache.avg_blocked_cycles::no_targets          nan                       # average number of cycles each access was blocked
system.cpu.dtb_walker_cache.replacements            0                       # number of replacements
system.cpu.dtb_walker_cache.power_state.pwrStateResidencyTicks::UNDEFINED 853786482400                       # Cumulative time (in ticks) in various power states
system.cpu.dtb_walker_cache.tags.tagsinuse            0                       # Cycle average of tags in use
system.cpu.dtb_walker_cache.tags.total_refs            0                       # Total number of references to valid blocks.
system.cpu.dtb_walker_cache.tags.sampled_refs            0                       # Sample count of references to valid blocks.
system.cpu.dtb_walker_cache.tags.avg_refs          nan                       # Average number of references to valid blocks.
system.cpu.dtb_walker_cache.tags.warmup_cycle            0                       # Cycle when the warmup percentage was hit.
system.cpu.dtb_walker_cache.tags.tag_accesses            0                       # Number of tag accesses
system.cpu.dtb_walker_cache.tags.data_accesses            0                       # Number of data accesses
system.cpu.dtb_walker_cache.tags.power_state.pwrStateResidencyTicks::UNDEFINED 853786482400                       # Cumulative time (in ticks) in various power states
system.cpu.icache.demand_hits::.cpu.inst           19                       # number of demand (read+write) hits
system.cpu.icache.demand_hits::.switch_cpus.inst       439867                       # number of demand (read+write) hits
system.cpu.icache.demand_hits::total           439886                       # number of demand (read+write) hits
system.cpu.icache.overall_hits::.cpu.inst           19                       # number of overall hits
system.cpu.icache.overall_hits::.switch_cpus.inst       439867                       # number of overall hits
system.cpu.icache.overall_hits::total          439886                       # number of overall hits
system.cpu.icache.demand_misses::.cpu.inst            3                       # number of demand (read+write) misses
system.cpu.icache.demand_misses::.switch_cpus.inst           99                       # number of demand (read+write) misses
system.cpu.icache.demand_misses::total            102                       # number of demand (read+write) misses
system.cpu.icache.overall_misses::.cpu.inst            3                       # number of overall misses
system.cpu.icache.overall_misses::.switch_cpus.inst           99                       # number of overall misses
system.cpu.icache.overall_misses::total           102                       # number of overall misses
system.cpu.icache.demand_miss_latency::.switch_cpus.inst      6522798                       # number of demand (read+write) miss cycles
system.cpu.icache.demand_miss_latency::total      6522798                       # number of demand (read+write) miss cycles
system.cpu.icache.overall_miss_latency::.switch_cpus.inst      6522798                       # number of overall miss cycles
system.cpu.icache.overall_miss_latency::total      6522798                       # number of overall miss cycles
system.cpu.icache.demand_accesses::.cpu.inst           22                       # number of demand (read+write) accesses
system.cpu.icache.demand_accesses::.switch_cpus.inst       439966                       # number of demand (read+write) accesses
system.cpu.icache.demand_accesses::total       439988                       # number of demand (read+write) accesses
system.cpu.icache.overall_accesses::.cpu.inst           22                       # number of overall (read+write) accesses
system.cpu.icache.overall_accesses::.switch_cpus.inst       439966                       # number of overall (read+write) accesses
system.cpu.icache.overall_accesses::total       439988                       # number of overall (read+write) accesses
system.cpu.icache.demand_miss_rate::.cpu.inst     0.136364                       # miss rate for demand accesses
system.cpu.icache.demand_miss_rate::.switch_cpus.inst     0.000225                       # miss rate for demand accesses
system.cpu.icache.demand_miss_rate::total     0.000232                       # miss rate for demand accesses
system.cpu.icache.overall_miss_rate::.cpu.inst     0.136364                       # miss rate for overall accesses
system.cpu.icache.overall_miss_rate::.switch_cpus.inst     0.000225                       # miss rate for overall accesses
system.cpu.icache.overall_miss_rate::total     0.000232                       # miss rate for overall accesses
system.cpu.icache.demand_avg_miss_latency::.switch_cpus.inst 65886.848485                       # average overall miss latency
system.cpu.icache.demand_avg_miss_latency::total        63949                       # average overall miss latency
system.cpu.icache.overall_avg_miss_latency::.switch_cpus.inst 65886.848485                       # average overall miss latency
system.cpu.icache.overall_avg_miss_latency::total        63949                       # average overall miss latency
system.cpu.icache.blocked_cycles::no_mshrs         3492                       # number of cycles access was blocked
system.cpu.icache.blocked_cycles::no_targets            0                       # number of cycles access was blocked
system.cpu.icache.blocked::no_mshrs                28                       # number of cycles access was blocked
system.cpu.icache.blocked::no_targets               0                       # number of cycles access was blocked
system.cpu.icache.avg_blocked_cycles::no_mshrs   124.714286                       # average number of cycles each access was blocked
system.cpu.icache.avg_blocked_cycles::no_targets          nan                       # average number of cycles each access was blocked
system.cpu.icache.demand_mshr_hits::.switch_cpus.inst           17                       # number of demand (read+write) MSHR hits
system.cpu.icache.demand_mshr_hits::total           17                       # number of demand (read+write) MSHR hits
system.cpu.icache.overall_mshr_hits::.switch_cpus.inst           17                       # number of overall MSHR hits
system.cpu.icache.overall_mshr_hits::total           17                       # number of overall MSHR hits
system.cpu.icache.demand_mshr_misses::.switch_cpus.inst           82                       # number of demand (read+write) MSHR misses
system.cpu.icache.demand_mshr_misses::total           82                       # number of demand (read+write) MSHR misses
system.cpu.icache.overall_mshr_misses::.switch_cpus.inst           82                       # number of overall MSHR misses
system.cpu.icache.overall_mshr_misses::total           82                       # number of overall MSHR misses
system.cpu.icache.demand_mshr_miss_latency::.switch_cpus.inst      5814398                       # number of demand (read+write) MSHR miss cycles
system.cpu.icache.demand_mshr_miss_latency::total      5814398                       # number of demand (read+write) MSHR miss cycles
system.cpu.icache.overall_mshr_miss_latency::.switch_cpus.inst      5814398                       # number of overall MSHR miss cycles
system.cpu.icache.overall_mshr_miss_latency::total      5814398                       # number of overall MSHR miss cycles
system.cpu.icache.demand_mshr_miss_rate::.switch_cpus.inst     0.000186                       # mshr miss rate for demand accesses
system.cpu.icache.demand_mshr_miss_rate::total     0.000186                       # mshr miss rate for demand accesses
system.cpu.icache.overall_mshr_miss_rate::.switch_cpus.inst     0.000186                       # mshr miss rate for overall accesses
system.cpu.icache.overall_mshr_miss_rate::total     0.000186                       # mshr miss rate for overall accesses
system.cpu.icache.demand_avg_mshr_miss_latency::.switch_cpus.inst 70907.292683                       # average overall mshr miss latency
system.cpu.icache.demand_avg_mshr_miss_latency::total 70907.292683                       # average overall mshr miss latency
system.cpu.icache.overall_avg_mshr_miss_latency::.switch_cpus.inst 70907.292683                       # average overall mshr miss latency
system.cpu.icache.overall_avg_mshr_miss_latency::total 70907.292683                       # average overall mshr miss latency
system.cpu.icache.replacements                      0                       # number of replacements
system.cpu.icache.ReadReq_hits::.cpu.inst           19                       # number of ReadReq hits
system.cpu.icache.ReadReq_hits::.switch_cpus.inst       439867                       # number of ReadReq hits
system.cpu.icache.ReadReq_hits::total          439886                       # number of ReadReq hits
system.cpu.icache.ReadReq_misses::.cpu.inst            3                       # number of ReadReq misses
system.cpu.icache.ReadReq_misses::.switch_cpus.inst           99                       # number of ReadReq misses
system.cpu.icache.ReadReq_misses::total           102                       # number of ReadReq misses
system.cpu.icache.ReadReq_miss_latency::.switch_cpus.inst      6522798                       # number of ReadReq miss cycles
system.cpu.icache.ReadReq_miss_latency::total      6522798                       # number of ReadReq miss cycles
system.cpu.icache.ReadReq_accesses::.cpu.inst           22                       # number of ReadReq accesses(hits+misses)
system.cpu.icache.ReadReq_accesses::.switch_cpus.inst       439966                       # number of ReadReq accesses(hits+misses)
system.cpu.icache.ReadReq_accesses::total       439988                       # number of ReadReq accesses(hits+misses)
system.cpu.icache.ReadReq_miss_rate::.cpu.inst     0.136364                       # miss rate for ReadReq accesses
system.cpu.icache.ReadReq_miss_rate::.switch_cpus.inst     0.000225                       # miss rate for ReadReq accesses
system.cpu.icache.ReadReq_miss_rate::total     0.000232                       # miss rate for ReadReq accesses
system.cpu.icache.ReadReq_avg_miss_latency::.switch_cpus.inst 65886.848485                       # average ReadReq miss latency
system.cpu.icache.ReadReq_avg_miss_latency::total        63949                       # average ReadReq miss latency
system.cpu.icache.ReadReq_mshr_hits::.switch_cpus.inst           17                       # number of ReadReq MSHR hits
system.cpu.icache.ReadReq_mshr_hits::total           17                       # number of ReadReq MSHR hits
system.cpu.icache.ReadReq_mshr_misses::.switch_cpus.inst           82                       # number of ReadReq MSHR misses
system.cpu.icache.ReadReq_mshr_misses::total           82                       # number of ReadReq MSHR misses
system.cpu.icache.ReadReq_mshr_miss_latency::.switch_cpus.inst      5814398                       # number of ReadReq MSHR miss cycles
system.cpu.icache.ReadReq_mshr_miss_latency::total      5814398                       # number of ReadReq MSHR miss cycles
system.cpu.icache.ReadReq_mshr_miss_rate::.switch_cpus.inst     0.000186                       # mshr miss rate for ReadReq accesses
system.cpu.icache.ReadReq_mshr_miss_rate::total     0.000186                       # mshr miss rate for ReadReq accesses
system.cpu.icache.ReadReq_avg_mshr_miss_latency::.switch_cpus.inst 70907.292683                       # average ReadReq mshr miss latency
system.cpu.icache.ReadReq_avg_mshr_miss_latency::total 70907.292683                       # average ReadReq mshr miss latency
system.cpu.icache.power_state.pwrStateResidencyTicks::UNDEFINED 853786482400                       # Cumulative time (in ticks) in various power states
system.cpu.icache.tags.tagsinuse            63.751291                       # Cycle average of tags in use
system.cpu.icache.tags.total_refs                   0                       # Total number of references to valid blocks.
system.cpu.icache.tags.sampled_refs                 0                       # Sample count of references to valid blocks.
system.cpu.icache.tags.avg_refs                   nan                       # Average number of references to valid blocks.
system.cpu.icache.tags.warmup_cycle      853372763200                       # Cycle when the warmup percentage was hit.
system.cpu.icache.tags.occ_blocks::.cpu.inst     2.999969                       # Average occupied blocks per requestor
system.cpu.icache.tags.occ_blocks::.switch_cpus.inst    60.751322                       # Average occupied blocks per requestor
system.cpu.icache.tags.occ_percent::.cpu.inst     0.005859                       # Average percentage of cache occupancy
system.cpu.icache.tags.occ_percent::.switch_cpus.inst     0.118655                       # Average percentage of cache occupancy
system.cpu.icache.tags.occ_percent::total     0.124514                       # Average percentage of cache occupancy
system.cpu.icache.tags.occ_task_id_blocks::1024           85                       # Occupied blocks per task id
system.cpu.icache.tags.age_task_id_blocks_1024::1            7                       # Occupied blocks per task id
system.cpu.icache.tags.age_task_id_blocks_1024::2           78                       # Occupied blocks per task id
system.cpu.icache.tags.occ_task_id_percent::1024     0.166016                       # Percentage of cache occupancy per task id
system.cpu.icache.tags.tag_accesses           3519989                       # Number of tag accesses
system.cpu.icache.tags.data_accesses          3519989                       # Number of data accesses
system.cpu.icache.tags.power_state.pwrStateResidencyTicks::UNDEFINED 853786482400                       # Cumulative time (in ticks) in various power states
system.cpu.itb.instHits                             0                       # ITB inst hits
system.cpu.itb.instMisses                           0                       # ITB inst misses
system.cpu.itb.readHits                             0                       # DTB read hits
system.cpu.itb.readMisses                           0                       # DTB read misses
system.cpu.itb.writeHits                            0                       # DTB write hits
system.cpu.itb.writeMisses                          0                       # DTB write misses
system.cpu.itb.inserts                              0                       # Number of times an entry is inserted into the TLB
system.cpu.itb.flushTlb                             2                       # Number of times complete TLB was flushed
system.cpu.itb.flushTlbMva                          0                       # Number of times TLB was flushed by MVA
system.cpu.itb.flushTlbMvaAsid                      0                       # Number of times TLB was flushed by MVA & ASID
system.cpu.itb.flushTlbAsid                         0                       # Number of times TLB was flushed by ASID
system.cpu.itb.flushedEntries                       0                       # Number of entries that have been flushed from TLB
system.cpu.itb.alignFaults                          0                       # Number of TLB faults due to alignment restrictions
system.cpu.itb.prefetchFaults                       0                       # Number of TLB faults due to prefetch
system.cpu.itb.domainFaults                         0                       # Number of TLB faults due to domain restrictions
system.cpu.itb.permsFaults                          0                       # Number of TLB faults due to permissions restrictions
system.cpu.itb.readAccesses                         0                       # DTB read accesses
system.cpu.itb.writeAccesses                        0                       # DTB write accesses
system.cpu.itb.instAccesses                         0                       # ITB inst accesses
system.cpu.itb.hits                                 0                       # Total TLB (inst and data) hits
system.cpu.itb.misses                               0                       # Total TLB (inst and data) misses
system.cpu.itb.accesses                             0                       # Total TLB (inst and data) accesses
system.cpu.itb.stage2_mmu.stage2_tlb.instHits            0                       # ITB inst hits
system.cpu.itb.stage2_mmu.stage2_tlb.instMisses            0                       # ITB inst misses
system.cpu.itb.stage2_mmu.stage2_tlb.readHits            0                       # DTB read hits
system.cpu.itb.stage2_mmu.stage2_tlb.readMisses            0                       # DTB read misses
system.cpu.itb.stage2_mmu.stage2_tlb.writeHits            0                       # DTB write hits
system.cpu.itb.stage2_mmu.stage2_tlb.writeMisses            0                       # DTB write misses
system.cpu.itb.stage2_mmu.stage2_tlb.inserts            0                       # Number of times an entry is inserted into the TLB
system.cpu.itb.stage2_mmu.stage2_tlb.flushTlb            0                       # Number of times complete TLB was flushed
system.cpu.itb.stage2_mmu.stage2_tlb.flushTlbMva            0                       # Number of times TLB was flushed by MVA
system.cpu.itb.stage2_mmu.stage2_tlb.flushTlbMvaAsid            0                       # Number of times TLB was flushed by MVA & ASID
system.cpu.itb.stage2_mmu.stage2_tlb.flushTlbAsid            0                       # Number of times TLB was flushed by ASID
system.cpu.itb.stage2_mmu.stage2_tlb.flushedEntries            0                       # Number of entries that have been flushed from TLB
system.cpu.itb.stage2_mmu.stage2_tlb.alignFaults            0                       # Number of TLB faults due to alignment restrictions
system.cpu.itb.stage2_mmu.stage2_tlb.prefetchFaults            0                       # Number of TLB faults due to prefetch
system.cpu.itb.stage2_mmu.stage2_tlb.domainFaults            0                       # Number of TLB faults due to domain restrictions
system.cpu.itb.stage2_mmu.stage2_tlb.permsFaults            0                       # Number of TLB faults due to permissions restrictions
system.cpu.itb.stage2_mmu.stage2_tlb.readAccesses            0                       # DTB read accesses
system.cpu.itb.stage2_mmu.stage2_tlb.writeAccesses            0                       # DTB write accesses
system.cpu.itb.stage2_mmu.stage2_tlb.instAccesses            0                       # ITB inst accesses
system.cpu.itb.stage2_mmu.stage2_tlb.hits            0                       # Total TLB (inst and data) hits
system.cpu.itb.stage2_mmu.stage2_tlb.misses            0                       # Total TLB (inst and data) misses
system.cpu.itb.stage2_mmu.stage2_tlb.accesses            0                       # Total TLB (inst and data) accesses
system.cpu.itb.stage2_mmu.stage2_tlb.walker.walks            0                       # Table walker walks requested
system.cpu.itb.stage2_mmu.stage2_tlb.walker.requestOrigin_Requested::Data            0                       # Table walker requests started/completed, data/inst
system.cpu.itb.stage2_mmu.stage2_tlb.walker.requestOrigin_Requested::Inst            0                       # Table walker requests started/completed, data/inst
system.cpu.itb.stage2_mmu.stage2_tlb.walker.requestOrigin_Requested::total            0                       # Table walker requests started/completed, data/inst
system.cpu.itb.stage2_mmu.stage2_tlb.walker.requestOrigin_Completed::Data            0                       # Table walker requests started/completed, data/inst
system.cpu.itb.stage2_mmu.stage2_tlb.walker.requestOrigin_Completed::Inst            0                       # Table walker requests started/completed, data/inst
system.cpu.itb.stage2_mmu.stage2_tlb.walker.requestOrigin_Completed::total            0                       # Table walker requests started/completed, data/inst
system.cpu.itb.stage2_mmu.stage2_tlb.walker.requestOrigin::total            0                       # Table walker requests started/completed, data/inst
system.cpu.itb.stage2_mmu.stage2_tlb.walker.power_state.pwrStateResidencyTicks::UNDEFINED 853786482400                       # Cumulative time (in ticks) in various power states
system.cpu.itb.walker.walks                         0                       # Table walker walks requested
system.cpu.itb.walker.requestOrigin_Requested::Data            0                       # Table walker requests started/completed, data/inst
system.cpu.itb.walker.requestOrigin_Requested::Inst            0                       # Table walker requests started/completed, data/inst
[...]
system.switch_cpus.fetch.insts               29262517                       # Number of instructions fetch has processed
system.switch_cpus.fetch.branches             6002623                       # Number of branches that fetch encountered
system.switch_cpus.fetch.predictedBranches      3974051                       # Number of branches that fetch has predicted taken
system.switch_cpus.fetch.cycles              10323319                       # Number of cycles fetch has run and was not squashing or blocked
system.switch_cpus.fetch.squashCycles          355944                       # Number of cycles fetch has spent squashing
system.switch_cpus.fetch.miscStallCycles          142                       # Number of cycles fetch has spent waiting on interrupts,or bad addresses, or out of MSHRs
system.switch_cpus.fetch.pendingTrapStallCycles            8                       # Number of stall cycles due to pending traps
system.switch_cpus.fetch.icacheWaitRetryStallCycles           18                       # Number of stall cycles due to full MSHR
system.switch_cpus.fetch.cacheLines           4671551                       # Number of cache lines fetched
system.switch_cpus.fetch.icacheSquashes             8                       # Number of outstanding Icache misses that were squashed
system.switch_cpus.fetch.nisnDist::samples     10654000                       # Number of instructions fetched each cycle (Total)
system.switch_cpus.fetch.nisnDist::mean      3.077034                       # Number of instructions fetched each cycle (Total)
system.switch_cpus.fetch.nisnDist::stdev     3.016809                       # Number of instructions fetched each cycle (Total)
system.switch_cpus.fetch.nisnDist::underflows            0      0.00%      0.00% # Number of instructions fetched each cycle (Total)
system.switch_cpus.fetch.nisnDist::0          3735552     35.06%     35.06% # Number of instructions fetched each cycle (Total)
system.switch_cpus.fetch.nisnDist::1           412858      3.88%     38.94% # Number of instructions fetched each cycle (Total)
system.switch_cpus.fetch.nisnDist::2          1668733     15.66%     54.60% # Number of instructions fetched each cycle (Total)
system.switch_cpus.fetch.nisnDist::3           522687      4.91%     59.51% # Number of instructions fetched each cycle (Total)
system.switch_cpus.fetch.nisnDist::4           818801      7.69%     67.19% # Number of instructions fetched each cycle (Total)
system.switch_cpus.fetch.nisnDist::5           794301      7.46%     74.65% # Number of instructions fetched each cycle (Total)
system.switch_cpus.fetch.nisnDist::6           541087      5.08%     79.73% # Number of instructions fetched each cycle (Total)
system.switch_cpus.fetch.nisnDist::7           308745      2.90%     82.62% # Number of instructions fetched each cycle (Total)
system.switch_cpus.fetch.nisnDist::8          1851236     17.38%    100.00% # Number of instructions fetched each cycle (Total)
system.switch_cpus.fetch.nisnDist::overflows            0      0.00%    100.00% # Number of instructions fetched each cycle (Total)
system.switch_cpus.fetch.nisnDist::min_value            0                       # Number of instructions fetched each cycle (Total)
system.switch_cpus.fetch.nisnDist::max_value            8                       # Number of instructions fetched each cycle (Total)
system.switch_cpus.fetch.nisnDist::total     10654000                       # Number of instructions fetched each cycle (Total)
system.switch_cpus.fetch.branchRate          0.563413                       # Number of branch fetches per cycle
system.switch_cpus.fetch.rate                2.746612                       # Number of inst fetches per cycle
system.switch_cpus.itb.instHits                     0                       # ITB inst hits
system.switch_cpus.itb.instMisses                   0                       # ITB inst misses
system.switch_cpus.itb.readHits                     0                       # DTB read hits
system.switch_cpus.itb.readMisses                   0                       # DTB read misses
system.switch_cpus.itb.writeHits                    0                       # DTB write hits
system.switch_cpus.itb.writeMisses                  0                       # DTB write misses
system.switch_cpus.itb.inserts                      0                       # Number of times an entry is inserted into the TLB
system.switch_cpus.itb.flushTlb                     0                       # Number of times complete TLB was flushed
system.switch_cpus.itb.flushTlbMva                  0                       # Number of times TLB was flushed by MVA
system.switch_cpus.itb.flushTlbMvaAsid              0                       # Number of times TLB was flushed by MVA & ASID
system.switch_cpus.itb.flushTlbAsid                 0                       # Number of times TLB was flushed by ASID
system.switch_cpus.itb.flushedEntries               0                       # Number of entries that have been flushed from TLB
system.switch_cpus.itb.alignFaults                  0                       # Number of TLB faults due to alignment restrictions
system.switch_cpus.itb.prefetchFaults               0                       # Number of TLB faults due to prefetch
system.switch_cpus.itb.domainFaults                 0                       # Number of TLB faults due to domain restrictions
system.switch_cpus.itb.permsFaults                  0                       # Number of TLB faults due to permissions restrictions
system.switch_cpus.itb.readAccesses                 0                       # DTB read accesses
system.switch_cpus.itb.writeAccesses                0                       # DTB write accesses
system.switch_cpus.itb.instAccesses                 0                       # ITB inst accesses
system.switch_cpus.itb.hits                         0                       # Total TLB (inst and data) hits
system.switch_cpus.itb.misses                       0                       # Total TLB (inst and data) misses
system.switch_cpus.itb.accesses                     0                       # Total TLB (inst and data) accesses
system.switch_cpus.itb.stage2_mmu.stage2_tlb.instHits            0                       # ITB inst hits
system.switch_cpus.itb.stage2_mmu.stage2_tlb.instMisses            0                       # ITB inst misses
system.switch_cpus.itb.stage2_mmu.stage2_tlb.readHits            0                       # DTB read hits
system.switch_cpus.itb.stage2_mmu.stage2_tlb.readMisses            0                       # DTB read misses
system.switch_cpus.itb.stage2_mmu.stage2_tlb.writeHits            0                       # DTB write hits
system.switch_cpus.itb.stage2_mmu.stage2_tlb.writeMisses            0                       # DTB write misses
system.switch_cpus.itb.stage2_mmu.stage2_tlb.inserts            0                       # Number of times an entry is inserted into the TLB
system.switch_cpus.itb.stage2_mmu.stage2_tlb.flushTlb            0                       # Number of times complete TLB was flushed
system.switch_cpus.itb.stage2_mmu.stage2_tlb.flushTlbMva            0                       # Number of times TLB was flushed by MVA
system.switch_cpus.itb.stage2_mmu.stage2_tlb.flushTlbMvaAsid            0                       # Number of times TLB was flushed by MVA & ASID
system.switch_cpus.itb.stage2_mmu.stage2_tlb.flushTlbAsid            0                       # Number of times TLB was flushed by ASID
system.switch_cpus.itb.stage2_mmu.stage2_tlb.flushedEntries            0                       # Number of entries that have been flushed from TLB
system.switch_cpus.itb.stage2_mmu.stage2_tlb.alignFaults            0                       # Number of TLB faults due to alignment restrictions
system.switch_cpus.itb.stage2_mmu.stage2_tlb.prefetchFaults            0                       # Number of TLB faults due to prefetch
system.switch_cpus.itb.stage2_mmu.stage2_tlb.domainFaults            0                       # Number of TLB faults due to domain restrictions
system.switch_cpus.itb.stage2_mmu.stage2_tlb.permsFaults            0                       # Number of TLB faults due to permissions restrictions
system.switch_cpus.itb.stage2_mmu.stage2_tlb.readAccesses            0                       # DTB read accesses
system.switch_cpus.itb.stage2_mmu.stage2_tlb.writeAccesses            0                       # DTB write accesses
system.switch_cpus.itb.stage2_mmu.stage2_tlb.instAccesses            0                       # ITB inst accesses
system.switch_cpus.itb.stage2_mmu.stage2_tlb.hits            0                       # Total TLB (inst and data) hits
system.switch_cpus.itb.stage2_mmu.stage2_tlb.misses            0                       # Total TLB (inst and data) misses
system.switch_cpus.itb.stage2_mmu.stage2_tlb.accesses            0                       # Total TLB (inst and data) accesses
system.switch_cpus.itb.stage2_mmu.stage2_tlb.walker.walks            0                       # Table walker walks requested
system.switch_cpus.itb.stage2_mmu.stage2_tlb.walker.requestOrigin_Requested::Data            0                       # Table walker requests started/completed, data/inst
system.switch_cpus.itb.stage2_mmu.stage2_tlb.walker.requestOrigin_Requested::Inst            0                       # Table walker requests started/completed, data/inst
system.switch_cpus.itb.stage2_mmu.stage2_tlb.walker.requestOrigin_Requested::total            0                       # Table walker requests started/completed, data/inst
system.switch_cpus.itb.stage2_mmu.stage2_tlb.walker.requestOrigin_Completed::Data            0                       # Table walker requests started/completed, data/inst
system.switch_cpus.itb.stage2_mmu.stage2_tlb.walker.requestOrigin_Completed::Inst            0                       # Table walker requests started/completed, data/inst
system.switch_cpus.itb.stage2_mmu.stage2_tlb.walker.requestOrigin_Completed::total            0                       # Table walker requests started/completed, data/inst
system.switch_cpus.itb.stage2_mmu.stage2_tlb.walker.requestOrigin::total            0                       # Table walker requests started/completed, data/inst
system.switch_cpus.itb.stage2_mmu.stage2_tlb.walker.power_state.pwrStateResidencyTicks::UNDEFINED   4261616400                       # Cumulative time (in ticks) in various power states
system.switch_cpus.itb.walker.walks                 0                       # Table walker walks requested
system.switch_cpus.itb.walker.requestOrigin_Requested::Data            0                       # Table walker requests started/completed, data/inst
system.switch_cpus.itb.walker.requestOrigin_Requested::Inst            0                       # Table walker requests started/completed, data/inst
system.switch_cpus.itb.walker.requestOrigin_Requested::total            0                       # Table walker requests started/completed, data/inst
system.switch_cpus.itb.walker.requestOrigin_Completed::Data            0                       # Table walker requests started/completed, data/inst
system.switch_cpus.itb.walker.requestOrigin_Completed::Inst            0                       # Table walker requests started/completed, data/inst
system.switch_cpus.itb.walker.requestOrigin_Completed::total            0                       # Table walker requests started/completed, data/inst
system.switch_cpus.itb.walker.requestOrigin::total            0                       # Table walker requests started/completed, data/inst
system.switch_cpus.itb.walker.power_state.pwrStateResidencyTicks::UNDEFINED   4261616400                       # Cumulative time (in ticks) in various power states
system.switch_cpus.lsq0.forwLoads             1413774                       # Number of loads that had data forwarded from stores
system.switch_cpus.lsq0.squashedLoads         3544518                       # Number of loads squashed
system.switch_cpus.lsq0.ignoredResponses            6                       # Number of memory responses ignored because the instruction is squashed
system.switch_cpus.lsq0.memOrderViolation          900                       # Number of memory ordering violations
system.switch_cpus.lsq0.squashedStores        2204684                       # Number of stores squashed
system.switch_cpus.lsq0.rescheduledLoads        17955                       # Number of loads that were rescheduled
system.switch_cpus.lsq0.blockedByCache            340                       # Number of times an access to memory failed due to the cache being blocked
system.switch_cpus.power_state.pwrStateResidencyTicks::OFF   4261616400                       # Cumulative time (in ticks) in various power states
system.switch_cpus.rename.squashCycles         177968                       # Number of cycles rename is squashing
system.switch_cpus.rename.idleCycles          1319388                       # Number of cycles rename is idle
system.switch_cpus.rename.blockCycles         4006415                       # Number of cycles rename is blocking
system.switch_cpus.rename.serializeStallCycles         4350                       # count of cycles rename stalledfor serializing inst
system.switch_cpus.rename.runCycles           4530756                       # Number of cycles rename is running
system.switch_cpus.rename.unblockCycles        615123                       # Number of cycles rename is unblocking
system.switch_cpus.rename.renamedInsts       27400611                       # Number of instructions processed by rename
system.switch_cpus.rename.squashedInsts        688069                       # Number of squashed instructions processed by rename
system.switch_cpus.rename.ROBFullEvents           118                       # Number of times rename has blocked due to ROB full
system.switch_cpus.rename.IQFullEvents         181304                       # Number of times rename has blocked due to IQ full
system.switch_cpus.rename.SQFullEvents           3951                       # Number of times rename has blocked due to SQ full
system.switch_cpus.rename.fullRegistersEvents       358902                       # Number of times there has been no free registers
system.switch_cpus.rename.renamedOperands     28534893                       # Number of destination operands rename has renamed
system.switch_cpus.rename.lookups            40557482                       # Number of register rename lookups that rename has made
system.switch_cpus.rename.intLookups         30883386                       # Number of integer rename lookups
system.switch_cpus.rename.committedMaps      11762629                       # Number of HB maps that are committed
system.switch_cpus.rename.undoneMaps         16772219                       # Number of HB maps that are undone due to squashing
system.switch_cpus.rename.serializing             395                       # count of serializing insts renamed
system.switch_cpus.rename.tempSerializing            4                       # count of temporary serializing insts renamed
system.switch_cpus.rename.skidInsts           1901505                       # count of insts added to the skid buffer
system.switch_cpus.rob.reads                 30826952                       # The number of ROB reads
system.switch_cpus.rob.writes                55856973                       # The number of ROB writes
system.switch_cpus.thread_0.numInsts          9999999                       # Number of Instructions committed
system.switch_cpus.thread_0.numOps           11432839                       # Number of Ops committed
system.switch_cpus.thread_0.numMemRefs              0                       # Number of Memory References
system.tol2bus.trans_dist::ReadResp              2500                       # Transaction distribution
system.tol2bus.trans_dist::WritebackDirty         2976                       # Transaction distribution
system.tol2bus.trans_dist::WritebackClean           39                       # Transaction distribution
system.tol2bus.trans_dist::HardPFReq              237                       # Transaction distribution
system.tol2bus.trans_dist::ReadExReq              520                       # Transaction distribution
system.tol2bus.trans_dist::ReadExResp             520                       # Transaction distribution
system.tol2bus.trans_dist::ReadCleanReq             5                       # Transaction distribution
system.tol2bus.trans_dist::ReadSharedReq         2495                       # Transaction distribution
system.tol2bus.pkt_count_system.cpu.icache.mem_side_port::system.l2.cpu_side_port           10                       # Packet count per connected requestor and responder (bytes)
system.tol2bus.pkt_count_system.cpu.dcache.mem_side_port::system.l2.cpu_side_port         9045                       # Packet count per connected requestor and responder (bytes)
system.tol2bus.pkt_count::total                  9055                       # Packet count per connected requestor and responder (bytes)
system.tol2bus.pkt_size_system.cpu.icache.mem_side_port::system.l2.cpu_side_port          640                       # Cumulative packet size per connected requestor and responder (bytes)
system.tol2bus.pkt_size_system.cpu.dcache.mem_side_port::system.l2.cpu_side_port       771840                       # Cumulative packet size per connected requestor and responder (bytes)
system.tol2bus.pkt_size::total                 772480                       # Cumulative packet size per connected requestor and responder (bytes)
system.tol2bus.snoops                             237                       # Total snoops (count)
system.tol2bus.snoopTraffic                         0                       # Total snoop traffic (bytes)
system.tol2bus.snoop_fanout::samples             3257                       # Request fanout histogram
system.tol2bus.snoop_fanout::mean            0.017501                       # Request fanout histogram
system.tol2bus.snoop_fanout::stdev           0.131148                       # Request fanout histogram
system.tol2bus.snoop_fanout::underflows             0      0.00%      0.00% # Request fanout histogram
system.tol2bus.snoop_fanout::0                   3200     98.25%     98.25% # Request fanout histogram
system.tol2bus.snoop_fanout::1                     57      1.75%    100.00% # Request fanout histogram
system.tol2bus.snoop_fanout::2                      0      0.00%    100.00% # Request fanout histogram
system.tol2bus.snoop_fanout::3                      0      0.00%    100.00% # Request fanout histogram
system.tol2bus.snoop_fanout::4                      0      0.00%    100.00% # Request fanout histogram
system.tol2bus.snoop_fanout::overflows              0      0.00%    100.00% # Request fanout histogram
system.tol2bus.snoop_fanout::min_value              0                       # Request fanout histogram
system.tol2bus.snoop_fanout::max_value              1                       # Request fanout histogram
system.tol2bus.snoop_fanout::total               3257                       # Request fanout histogram
system.tol2bus.power_state.pwrStateResidencyTicks::UNDEFINED   4261616400                       # Cumulative time (in ticks) in various power states
system.tol2bus.reqLayer0.occupancy            7238000                       # Layer occupancy (ticks)
system.tol2bus.reqLayer0.utilization              0.2                       # Layer utilization (%)
system.tol2bus.respLayer0.occupancy             10000                       # Layer occupancy (ticks)
system.tol2bus.respLayer0.utilization             0.0                       # Layer utilization (%)
system.tol2bus.respLayer1.occupancy           6030000                       # Layer occupancy (ticks)
system.tol2bus.respLayer1.utilization             0.1                       # Layer utilization (%)
system.voltage_domain.voltage                       1                       # Voltage in Volts

---------- End Simulation Statistics   ----------
