
---------- Begin Simulation Statistics ----------
final_tick                               626001683038                       # Number of ticks from beginning of simulation (restored from checkpoints and never reset)
host_inst_rate                                 439020                       # Simulator instruction rate (inst/s)
host_mem_usage                               16965264                       # Number of bytes of host memory used
host_op_rate                                   439011                       # Simulator op (including micro ops) rate (op/s)
host_seconds                                     2.28                       # Real time elapsed on the host
host_tick_rate                               94284594                       # Simulator tick rate (ticks/s)
sim_freq                                 1000000000000                       # Frequency of simulated ticks
sim_insts                                     1000035                       # Number of instructions simulated
sim_ops                                       1000035                       # Number of ops (including micro ops) simulated
sim_seconds                                  0.000215                       # Number of seconds simulated
sim_ticks                                   214774638                       # Number of ticks simulated
system.cpu.Branches                                 6                       # Number of branches fetched
system.cpu.committedInsts                          30                       # Number of instructions committed
system.cpu.committedOps                            30                       # Number of ops (including micro ops) committed
system.cpu.idle_fraction                            0                       # Percentage of idle cycles
system.cpu.not_idle_fraction                        1                       # Percentage of non-idle cycles
system.cpu.numCycles                               30                       # number of cpu cycles simulated
system.cpu.numWorkItemsCompleted                    0                       # number of work items this cpu completed
system.cpu.numWorkItemsStarted                      0                       # number of work items this cpu started
system.cpu.num_busy_cycles                         30                       # Number of busy cycles
system.cpu.num_cc_register_reads                   18                       # number of times the CC registers were read
system.cpu.num_cc_register_writes                  21                       # number of times the CC registers were written
system.cpu.num_conditional_control_insts            6                       # number of instructions that are conditional controls
system.cpu.num_fp_alu_accesses                      0                       # Number of float alu accesses
system.cpu.num_fp_insts                             0                       # number of float instructions
system.cpu.num_fp_register_reads                    0                       # number of times the floating registers were read
system.cpu.num_fp_register_writes                   0                       # number of times the floating registers were written
system.cpu.num_func_calls                           0                       # number of times a function call or return occured
system.cpu.num_idle_cycles                          0                       # Number of idle cycles
system.cpu.num_int_alu_accesses                    24                       # Number of integer alu accesses
system.cpu.num_int_insts                           24                       # number of integer instructions
system.cpu.num_int_register_reads                  29                       # number of times the integer registers were read
system.cpu.num_int_register_writes                 24                       # number of times the integer registers were written
system.cpu.num_load_insts                          13                       # Number of load instructions
system.cpu.num_mem_refs                            13                       # number of memory refs
system.cpu.num_store_insts                          0                       # Number of store instructions
system.cpu.num_vec_alu_accesses                     0                       # Number of vector alu accesses
system.cpu.num_vec_insts                            0                       # number of vector instructions
system.cpu.num_vec_register_reads                   0                       # number of times the vector registers were read
system.cpu.num_vec_register_writes                  0                       # number of times the vector registers were written
system.cpu.op_class::No_OpClass                     0      0.00%      0.00% # Class of executed instruction
system.cpu.op_class::IntAlu                        17     56.67%     56.67% # Class of executed instruction
system.cpu.op_class::IntMult                        0      0.00%     56.67% # Class of executed instruction
system.cpu.op_class::IntDiv                         0      0.00%     56.67% # Class of executed instruction
system.cpu.op_class::FloatAdd                       0      0.00%     56.67% # Class of executed instruction
system.cpu.op_class::FloatCmp                       0      0.00%     56.67% # Class of executed instruction
system.cpu.op_class::FloatCvt                       0      0.00%     56.67% # Class of executed instruction
system.cpu.op_class::FloatMult                      0      0.00%     56.67% # Class of executed instruction
system.cpu.op_class::FloatMultAcc                   0      0.00%     56.67% # Class of executed instruction
system.cpu.op_class::FloatDiv                       0      0.00%     56.67% # Class of executed instruction
system.cpu.op_class::FloatMisc                      0      0.00%     56.67% # Class of executed instruction
system.cpu.op_class::FloatSqrt                      0      0.00%     56.67% # Class of executed instruction
system.cpu.op_class::SimdAdd                        0      0.00%     56.67% # Class of executed instruction
system.cpu.op_class::SimdAddAcc                     0      0.00%     56.67% # Class of executed instruction
system.cpu.op_class::SimdAlu                        0      0.00%     56.67% # Class of executed instruction
system.cpu.op_class::SimdCmp                        0      0.00%     56.67% # Class of executed instruction
system.cpu.op_class::SimdCvt                        0      0.00%     56.67% # Class of executed instruction
system.cpu.op_class::SimdMisc                       0      0.00%     56.67% # Class of executed instruction
system.cpu.op_class::SimdMult                       0      0.00%     56.67% # Class of executed instruction
system.cpu.op_class::SimdMultAcc                    0      0.00%     56.67% # Class of executed instruction
system.cpu.op_class::SimdShift                      0      0.00%     56.67% # Class of executed instruction
system.cpu.op_class::SimdShiftAcc                   0      0.00%     56.67% # Class of executed instruction
system.cpu.op_class::SimdDiv                        0      0.00%     56.67% # Class of executed instruction
system.cpu.op_class::SimdSqrt                       0      0.00%     56.67% # Class of executed instruction
system.cpu.op_class::SimdFloatAdd                   0      0.00%     56.67% # Class of executed instruction
system.cpu.op_class::SimdFloatAlu                   0      0.00%     56.67% # Class of executed instruction
system.cpu.op_class::SimdFloatCmp                   0      0.00%     56.67% # Class of executed instruction
system.cpu.op_class::SimdFloatCvt                   0      0.00%     56.67% # Class of executed instruction
system.cpu.op_class::SimdFloatDiv                   0      0.00%     56.67% # Class of executed instruction
system.cpu.op_class::SimdFloatMisc                  0      0.00%     56.67% # Class of executed instruction
system.cpu.op_class::SimdFloatMult                  0      0.00%     56.67% # Class of executed instruction
system.cpu.op_class::SimdFloatMultAcc               0      0.00%     56.67% # Class of executed instruction
system.cpu.op_class::SimdFloatSqrt                  0      0.00%     56.67% # Class of executed instruction
system.cpu.op_class::SimdReduceAdd                  0      0.00%     56.67% # Class of executed instruction
system.cpu.op_class::SimdReduceAlu                  0      0.00%     56.67% # Class of executed instruction
system.cpu.op_class::SimdReduceCmp                  0      0.00%     56.67% # Class of executed instruction
system.cpu.op_class::SimdFloatReduceAdd             0      0.00%     56.67% # Class of executed instruction
system.cpu.op_class::SimdFloatReduceCmp             0      0.00%     56.67% # Class of executed instruction
system.cpu.op_class::SimdAes                        0      0.00%     56.67% # Class of executed instruction
system.cpu.op_class::SimdAesMix                     0      0.00%     56.67% # Class of executed instruction
system.cpu.op_class::SimdSha1Hash                   0      0.00%     56.67% # Class of executed instruction
system.cpu.op_class::SimdSha1Hash2                  0      0.00%     56.67% # Class of executed instruction
system.cpu.op_class::SimdSha256Hash                 0      0.00%     56.67% # Class of executed instruction
system.cpu.op_class::SimdSha256Hash2                0      0.00%     56.67% # Class of executed instruction
system.cpu.op_class::SimdShaSigma2                  0      0.00%     56.67% # Class of executed instruction
system.cpu.op_class::SimdShaSigma3                  0      0.00%     56.67% # Class of executed instruction
system.cpu.op_class::SimdPredAlu                    0      0.00%     56.67% # Class of executed instruction
system.cpu.op_class::MemRead                       13     43.33%    100.00% # Class of executed instruction
system.cpu.op_class::MemWrite                       0      0.00%    100.00% # Class of executed instruction
system.cpu.op_class::FloatMemRead                   0      0.00%    100.00% # Class of executed instruction
system.cpu.op_class::FloatMemWrite                  0      0.00%    100.00% # Class of executed instruction
system.cpu.op_class::IprAccess                      0      0.00%    100.00% # Class of executed instruction
system.cpu.op_class::InstPrefetch                   0      0.00%    100.00% # Class of executed instruction
system.cpu.op_class::total                         30                       # Class of executed instruction
system.cpu.workload.numSyscalls                     0                       # Number of system calls
system.membus.snoop_filter.hit_multi_requests            0                       # Number of requests hitting in the snoop filter with multiple (>1) holders of the requested data.
system.membus.snoop_filter.hit_multi_snoops            0                       # Number of snoops hitting in the snoop filter with multiple (>1) holders of the requested data.
system.membus.snoop_filter.hit_single_requests            0                       # Number of requests hitting in the snoop filter with a single holder of the requested data.
system.membus.snoop_filter.hit_single_snoops            0                       # Number of snoops hitting in the snoop filter with a single holder of the requested data.
system.membus.snoop_filter.tot_requests          2333                       # Total number of requests made to the snoop filter.
system.membus.snoop_filter.tot_snoops               0                       # Total number of snoops made to the snoop filter.
system.switch_cpus.cc_regfile_reads            477375                       # number of cc regfile reads
system.switch_cpus.cc_regfile_writes           477507                       # number of cc regfile writes
system.switch_cpus.committedInsts             1000005                       # Number of Instructions Simulated
system.switch_cpus.committedOps               1000005                       # Number of Ops (including micro ops) Simulated
system.switch_cpus.cpi                       0.664903                       # CPI: Cycles Per Instruction
system.switch_cpus.cpi_total                 0.664903                       # CPI: Total CPI of All Threads
system.switch_cpus.idleCycles                     969                       # Total number of cycles that the CPU has spent unscheduled due to idling
system.switch_cpus.iew.branchMispredicts          717                       # Number of branch mispredicts detected at execute
system.switch_cpus.iew.exec_branches           159175                       # Number of branches executed
system.switch_cpus.iew.exec_nop                    23                       # number of nop insts executed
system.switch_cpus.iew.exec_rate             1.522680                       # Inst execution rate
system.switch_cpus.iew.exec_refs               484959                       # number of memory reference insts executed
system.switch_cpus.iew.exec_stores              46344                       # Number of stores executed
system.switch_cpus.iew.exec_swp                     0                       # number of swp insts executed
system.switch_cpus.iew.iewBlockCycles            2193                       # Number of cycles IEW is blocking
system.switch_cpus.iew.iewDispLoadInsts        439596                       # Number of dispatched load instructions
system.switch_cpus.iew.iewDispNonSpecInsts            0                       # Number of dispatched non-speculative instructions
system.switch_cpus.iew.iewDispSquashedInsts            6                       # Number of squashed instructions skipped by dispatch
system.switch_cpus.iew.iewDispStoreInsts        47340                       # Number of dispatched store instructions
system.switch_cpus.iew.iewDispatchedInsts      1018941                       # Number of instructions dispatched to IQ
system.switch_cpus.iew.iewExecLoadInsts        438615                       # Number of load instructions executed
system.switch_cpus.iew.iewExecSquashedInsts          406                       # Number of squashed instructions skipped in execute
system.switch_cpus.iew.iewExecutedInsts       1012439                       # Number of executed instructions
system.switch_cpus.iew.iewIQFullEvents              6                       # Number of times the IQ has become full, causing a stall
system.switch_cpus.iew.iewIdleCycles                0                       # Number of cycles IEW is idle
system.switch_cpus.iew.iewLSQFullEvents         68191                       # Number of times the LSQ has become full, causing a stall
system.switch_cpus.iew.iewSquashCycles            741                       # Number of cycles IEW is squashing
system.switch_cpus.iew.iewUnblockCycles         68173                       # Number of cycles IEW is unblocking
system.switch_cpus.iew.memOrderViolationEvents           36                       # Number of memory order violations
system.switch_cpus.iew.predictedNotTakenIncorrect          141                       # Number of branches that were predicted not taken incorrectly
system.switch_cpus.iew.predictedTakenIncorrect          576                       # Number of branches that were predicted taken incorrectly
system.switch_cpus.iew.wb_consumers           1120869                       # num instructions consuming a value
system.switch_cpus.iew.wb_count               1010056                       # cumulative count of insts written-back
system.switch_cpus.iew.wb_fanout             0.716024                       # average fanout of values written-back
system.switch_cpus.iew.wb_producers            802569                       # num instructions producing a value
system.switch_cpus.iew.wb_rate               1.519096                       # insts written-back per cycle
system.switch_cpus.iew.wb_sent                1010254                       # cumulative count of insts sent to commit
system.switch_cpus.int_regfile_reads          1044589                       # number of integer regfile reads
system.switch_cpus.int_regfile_writes          804793                       # number of integer regfile writes
system.switch_cpus.ipc                       1.503980                       # IPC: Instructions Per Cycle
system.switch_cpus.ipc_total                 1.503980                       # IPC: Total IPC of All Threads
system.switch_cpus.iq.FU_type_0::No_OpClass            0      0.00%      0.00% # Type of FU issued
system.switch_cpus.iq.FU_type_0::IntAlu        527558     52.09%     52.09% # Type of FU issued
system.switch_cpus.iq.FU_type_0::IntMult            0      0.00%     52.09% # Type of FU issued
system.switch_cpus.iq.FU_type_0::IntDiv             0      0.00%     52.09% # Type of FU issued
system.switch_cpus.iq.FU_type_0::FloatAdd            0      0.00%     52.09% # Type of FU issued
system.switch_cpus.iq.FU_type_0::FloatCmp            0      0.00%     52.09% # Type of FU issued
system.switch_cpus.iq.FU_type_0::FloatCvt            0      0.00%     52.09% # Type of FU issued
system.switch_cpus.iq.FU_type_0::FloatMult            0      0.00%     52.09% # Type of FU issued
system.switch_cpus.iq.FU_type_0::FloatMultAcc            0      0.00%     52.09% # Type of FU issued
system.switch_cpus.iq.FU_type_0::FloatDiv            0      0.00%     52.09% # Type of FU issued
system.switch_cpus.iq.FU_type_0::FloatMisc            0      0.00%     52.09% # Type of FU issued
system.switch_cpus.iq.FU_type_0::FloatSqrt            0      0.00%     52.09% # Type of FU issued
system.switch_cpus.iq.FU_type_0::SimdAdd            0      0.00%     52.09% # Type of FU issued
system.switch_cpus.iq.FU_type_0::SimdAddAcc            0      0.00%     52.09% # Type of FU issued
system.switch_cpus.iq.FU_type_0::SimdAlu            0      0.00%     52.09% # Type of FU issued
system.switch_cpus.iq.FU_type_0::SimdCmp            0      0.00%     52.09% # Type of FU issued
system.switch_cpus.iq.FU_type_0::SimdCvt            0      0.00%     52.09% # Type of FU issued
system.switch_cpus.iq.FU_type_0::SimdMisc            0      0.00%     52.09% # Type of FU issued
system.switch_cpus.iq.FU_type_0::SimdMult            0      0.00%     52.09% # Type of FU issued
system.switch_cpus.iq.FU_type_0::SimdMultAcc            0      0.00%     52.09% # Type of FU issued
system.switch_cpus.iq.FU_type_0::SimdShift            0      0.00%     52.09% # Type of FU issued
system.switch_cpus.iq.FU_type_0::SimdShiftAcc            0      0.00%     52.09% # Type of FU issued
system.switch_cpus.iq.FU_type_0::SimdDiv            0      0.00%     52.09% # Type of FU issued
system.switch_cpus.iq.FU_type_0::SimdSqrt            0      0.00%     52.09% # Type of FU issued
system.switch_cpus.iq.FU_type_0::SimdFloatAdd            0      0.00%     52.09% # Type of FU issued
system.switch_cpus.iq.FU_type_0::SimdFloatAlu            0      0.00%     52.09% # Type of FU issued
system.switch_cpus.iq.FU_type_0::SimdFloatCmp            0      0.00%     52.09% # Type of FU issued
system.switch_cpus.iq.FU_type_0::SimdFloatCvt            0      0.00%     52.09% # Type of FU issued
system.switch_cpus.iq.FU_type_0::SimdFloatDiv            0      0.00%     52.09% # Type of FU issued
system.switch_cpus.iq.FU_type_0::SimdFloatMisc            0      0.00%     52.09% # Type of FU issued
system.switch_cpus.iq.FU_type_0::SimdFloatMult            0      0.00%     52.09% # Type of FU issued
system.switch_cpus.iq.FU_type_0::SimdFloatMultAcc            0      0.00%     52.09% # Type of FU issued
system.switch_cpus.iq.FU_type_0::SimdFloatSqrt            0      0.00%     52.09% # Type of FU issued
system.switch_cpus.iq.FU_type_0::SimdReduceAdd            0      0.00%     52.09% # Type of FU issued
system.switch_cpus.iq.FU_type_0::SimdReduceAlu            0      0.00%     52.09% # Type of FU issued
system.switch_cpus.iq.FU_type_0::SimdReduceCmp            0      0.00%     52.09% # Type of FU issued
system.switch_cpus.iq.FU_type_0::SimdFloatReduceAdd            0      0.00%     52.09% # Type of FU issued
system.switch_cpus.iq.FU_type_0::SimdFloatReduceCmp            0      0.00%     52.09% # Type of FU issued
system.switch_cpus.iq.FU_type_0::SimdAes            0      0.00%     52.09% # Type of FU issued
system.switch_cpus.iq.FU_type_0::SimdAesMix            0      0.00%     52.09% # Type of FU issued
system.switch_cpus.iq.FU_type_0::SimdSha1Hash            0      0.00%     52.09% # Type of FU issued
system.switch_cpus.iq.FU_type_0::SimdSha1Hash2            0      0.00%     52.09% # Type of FU issued
system.switch_cpus.iq.FU_type_0::SimdSha256Hash            0      0.00%     52.09% # Type of FU issued
system.switch_cpus.iq.FU_type_0::SimdSha256Hash2            0      0.00%     52.09% # Type of FU issued
system.switch_cpus.iq.FU_type_0::SimdShaSigma2            0      0.00%     52.09% # Type of FU issued
system.switch_cpus.iq.FU_type_0::SimdShaSigma3            0      0.00%     52.09% # Type of FU issued
system.switch_cpus.iq.FU_type_0::SimdPredAlu            0      0.00%     52.09% # Type of FU issued
system.switch_cpus.iq.FU_type_0::MemRead       438867     43.33%     95.42% # Type of FU issued
system.switch_cpus.iq.FU_type_0::MemWrite        46420      4.58%    100.00% # Type of FU issued
system.switch_cpus.iq.FU_type_0::FloatMemRead            0      0.00%    100.00% # Type of FU issued
system.switch_cpus.iq.FU_type_0::FloatMemWrite            0      0.00%    100.00% # Type of FU issued
system.switch_cpus.iq.FU_type_0::IprAccess            0      0.00%    100.00% # Type of FU issued
system.switch_cpus.iq.FU_type_0::InstPrefetch            0      0.00%    100.00% # Type of FU issued
system.switch_cpus.iq.FU_type_0::total        1012845                       # Type of FU issued
system.switch_cpus.iq.fp_alu_accesses               0                       # Number of floating point alu accesses
system.switch_cpus.iq.fp_inst_queue_reads            0                       # Number of floating instruction queue reads
system.switch_cpus.iq.fp_inst_queue_wakeup_accesses            0                       # Number of floating instruction queue wakeup accesses
system.switch_cpus.iq.fp_inst_queue_writes            0                       # Number of floating instruction queue writes
system.switch_cpus.iq.fu_busy_cnt               30452                       # FU busy when requested
system.switch_cpus.iq.fu_busy_rate           0.030066                       # FU busy rate (busy events/executed inst)
system.switch_cpus.iq.fu_full::No_OpClass            0      0.00%      0.00% # attempts to use FU when none available
system.switch_cpus.iq.fu_full::IntAlu            6368     20.91%     20.91% # attempts to use FU when none available
system.switch_cpus.iq.fu_full::IntMult              0      0.00%     20.91% # attempts to use FU when none available
system.switch_cpus.iq.fu_full::IntDiv               0      0.00%     20.91% # attempts to use FU when none available
system.switch_cpus.iq.fu_full::FloatAdd             0      0.00%     20.91% # attempts to use FU when none available
system.switch_cpus.iq.fu_full::FloatCmp             0      0.00%     20.91% # attempts to use FU when none available
system.switch_cpus.iq.fu_full::FloatCvt             0      0.00%     20.91% # attempts to use FU when none available
system.switch_cpus.iq.fu_full::FloatMult            0      0.00%     20.91% # attempts to use FU when none available
system.switch_cpus.iq.fu_full::FloatMultAcc            0      0.00%     20.91% # attempts to use FU when none available
system.switch_cpus.iq.fu_full::FloatDiv             0      0.00%     20.91% # attempts to use FU when none available
system.switch_cpus.iq.fu_full::FloatMisc            0      0.00%     20.91% # attempts to use FU when none available
system.switch_cpus.iq.fu_full::FloatSqrt            0      0.00%     20.91% # attempts to use FU when none available
system.switch_cpus.iq.fu_full::SimdAdd              0      0.00%     20.91% # attempts to use FU when none available
system.switch_cpus.iq.fu_full::SimdAddAcc            0      0.00%     20.91% # attempts to use FU when none available
system.switch_cpus.iq.fu_full::SimdAlu              0      0.00%     20.91% # attempts to use FU when none available
system.switch_cpus.iq.fu_full::SimdCmp              0      0.00%     20.91% # attempts to use FU when none available
system.switch_cpus.iq.fu_full::SimdCvt              0      0.00%     20.91% # attempts to use FU when none available
system.switch_cpus.iq.fu_full::SimdMisc             0      0.00%     20.91% # attempts to use FU when none available
system.switch_cpus.iq.fu_full::SimdMult             0      0.00%     20.91% # attempts to use FU when none available
system.switch_cpus.iq.fu_full::SimdMultAcc            0      0.00%     20.91% # attempts to use FU when none available
system.switch_cpus.iq.fu_full::SimdShift            0      0.00%     20.91% # attempts to use FU when none available
system.switch_cpus.iq.fu_full::SimdShiftAcc            0      0.00%     20.91% # attempts to use FU when none available
system.switch_cpus.iq.fu_full::SimdDiv              0      0.00%     20.91% # attempts to use FU when none available
system.switch_cpus.iq.fu_full::SimdSqrt             0      0.00%     20.91% # attempts to use FU when none available
system.switch_cpus.iq.fu_full::SimdFloatAdd            0      0.00%     20.91% # attempts to use FU when none available
system.switch_cpus.iq.fu_full::SimdFloatAlu            0      0.00%     20.91% # attempts to use FU when none available
system.switch_cpus.iq.fu_full::SimdFloatCmp            0      0.00%     20.91% # attempts to use FU when none available
system.switch_cpus.iq.fu_full::SimdFloatCvt            0      0.00%     20.91% # attempts to use FU when none available
system.switch_cpus.iq.fu_full::SimdFloatDiv            0      0.00%     20.91% # attempts to use FU when none available
system.switch_cpus.iq.fu_full::SimdFloatMisc            0      0.00%     20.91% # attempts to use FU when none available
system.switch_cpus.iq.fu_full::SimdFloatMult            0      0.00%     20.91% # attempts to use FU when none available
system.switch_cpus.iq.fu_full::SimdFloatMultAcc            0      0.00%     20.91% # attempts to use FU when none available
system.switch_cpus.iq.fu_full::SimdFloatSqrt            0      0.00%     20.91% # attempts to use FU when none available
system.switch_cpus.iq.fu_full::SimdReduceAdd            0      0.00%     20.91% # attempts to use FU when none available
system.switch_cpus.iq.fu_full::SimdReduceAlu            0      0.00%     20.91% # attempts to use FU when none available
system.switch_cpus.iq.fu_full::SimdReduceCmp            0      0.00%     20.91% # attempts to use FU when none available
system.switch_cpus.iq.fu_full::SimdFloatReduceAdd            0      0.00%     20.91% # attempts to use FU when none available
system.switch_cpus.iq.fu_full::SimdFloatReduceCmp            0      0.00%     20.91% # attempts to use FU when none available
system.switch_cpus.iq.fu_full::SimdAes              0      0.00%     20.91% # attempts to use FU when none available
system.switch_cpus.iq.fu_full::SimdAesMix            0      0.00%     20.91% # attempts to use FU when none available
system.switch_cpus.iq.fu_full::SimdSha1Hash            0      0.00%     20.91% # attempts to use FU when none available
system.switch_cpus.iq.fu_full::SimdSha1Hash2            0      0.00%     20.91% # attempts to use FU when none available
system.switch_cpus.iq.fu_full::SimdSha256Hash            0      0.00%     20.91% # attempts to use FU when none available
system.switch_cpus.iq.fu_full::SimdSha256Hash2            0      0.00%     20.91% # attempts to use FU when none available
system.switch_cpus.iq.fu_full::SimdShaSigma2            0      0.00%     20.91% # attempts to use FU when none available
system.switch_cpus.iq.fu_full::SimdShaSigma3            0      0.00%     20.91% # attempts to use FU when none available
system.switch_cpus.iq.fu_full::SimdPredAlu            0      0.00%     20.91% # attempts to use FU when none available
system.switch_cpus.iq.fu_full::MemRead          23861     78.36%     99.27% # attempts to use FU when none available
system.switch_cpus.iq.fu_full::MemWrite           223      0.73%    100.00% # attempts to use FU when none available
system.switch_cpus.iq.fu_full::FloatMemRead            0      0.00%    100.00% # attempts to use FU when none available
system.switch_cpus.iq.fu_full::FloatMemWrite            0      0.00%    100.00% # attempts to use FU when none available
system.switch_cpus.iq.fu_full::IprAccess            0      0.00%    100.00% # attempts to use FU when none available
system.switch_cpus.iq.fu_full::InstPrefetch            0      0.00%    100.00% # attempts to use FU when none available
system.switch_cpus.iq.int_alu_accesses        1043297                       # Number of integer alu accesses
system.switch_cpus.iq.int_inst_queue_reads      2720101                       # Number of integer instruction queue reads
system.switch_cpus.iq.int_inst_queue_wakeup_accesses      1010056                       # Number of integer instruction queue wakeup accesses
system.switch_cpus.iq.int_inst_queue_writes      1037814                       # Number of integer instruction queue writes
system.switch_cpus.iq.iqInstsAdded            1018918                       # Number of instructions added to the IQ (excludes non-spec)
system.switch_cpus.iq.iqInstsIssued           1012845                       # Number of instructions issued
system.switch_cpus.iq.iqSquashedInstsExamined        18861                       # Number of squashed instructions iterated over during squash; mainly for profiling
system.switch_cpus.iq.iqSquashedInstsIssued           22                       # Number of squashed instructions issued
system.switch_cpus.iq.iqSquashedOperandsExamined        13895                       # Number of squashed operands that are examined and possibly removed from graph
system.switch_cpus.iq.issued_per_cycle::samples       663937                       # Number of insts issued each cycle
system.switch_cpus.iq.issued_per_cycle::mean     1.525514                       # Number of insts issued each cycle
system.switch_cpus.iq.issued_per_cycle::stdev     1.967336                       # Number of insts issued each cycle
system.switch_cpus.iq.issued_per_cycle::underflows            0      0.00%      0.00% # Number of insts issued each cycle
system.switch_cpus.iq.issued_per_cycle::0       342992     51.66%     51.66% # Number of insts issued each cycle
system.switch_cpus.iq.issued_per_cycle::1        68186     10.27%     61.93% # Number of insts issued each cycle
system.switch_cpus.iq.issued_per_cycle::2        56749      8.55%     70.48% # Number of insts issued each cycle
system.switch_cpus.iq.issued_per_cycle::3        65682      9.89%     80.37% # Number of insts issued each cycle
system.switch_cpus.iq.issued_per_cycle::4        63358      9.54%     89.91% # Number of insts issued each cycle
system.switch_cpus.iq.issued_per_cycle::5        35410      5.33%     95.25% # Number of insts issued each cycle
system.switch_cpus.iq.issued_per_cycle::6        21191      3.19%     98.44% # Number of insts issued each cycle
system.switch_cpus.iq.issued_per_cycle::7         6465      0.97%     99.41% # Number of insts issued each cycle
system.switch_cpus.iq.issued_per_cycle::8         3904      0.59%    100.00% # Number of insts issued each cycle
system.switch_cpus.iq.issued_per_cycle::overflows            0      0.00%    100.00% # Number of insts issued each cycle
system.switch_cpus.iq.issued_per_cycle::min_value            0                       # Number of insts issued each cycle
system.switch_cpus.iq.issued_per_cycle::max_value            8                       # Number of insts issued each cycle
system.switch_cpus.iq.issued_per_cycle::total       663937                       # Number of insts issued each cycle
system.switch_cpus.iq.rate                   1.523291                       # Inst issue rate
system.switch_cpus.iq.vec_alu_accesses              0                       # Number of vector alu accesses
system.switch_cpus.iq.vec_inst_queue_reads            0                       # Number of vector instruction queue reads
system.switch_cpus.iq.vec_inst_queue_wakeup_accesses            0                       # Number of vector instruction queue wakeup accesses
system.switch_cpus.iq.vec_inst_queue_writes            0                       # Number of vector instruction queue writes
system.switch_cpus.memDep0.conflictingLoads       114455                       # Number of conflicting loads.
system.switch_cpus.memDep0.conflictingStores         7630                       # Number of conflicting stores.
system.switch_cpus.memDep0.insertedLoads       439596                       # Number of loads inserted to the mem dependence unit.
system.switch_cpus.memDep0.insertedStores        47340                       # Number of stores inserted to the mem dependence unit.
system.switch_cpus.misc_regfile_reads         2072194                       # number of misc regfile reads
system.switch_cpus.misc_regfile_writes              1                       # number of misc regfile writes
system.switch_cpus.numCycles                   664906                       # number of cpu cycles simulated
system.switch_cpus.numWorkItemsCompleted            0                       # number of work items this cpu completed
system.switch_cpus.numWorkItemsStarted              0                       # number of work items this cpu started
system.switch_cpus.timesIdled                       9                       # Number of times that the entire CPU went into an idle state and unscheduled itself
system.switch_cpus.vec_regfile_writes              44                       # number of vector regfile writes
system.tol2bus.snoop_filter.hit_multi_requests            0                       # Number of requests hitting in the snoop filter with multiple (>1) holders of the requested data.
system.tol2bus.snoop_filter.hit_multi_snoops            0                       # Number of snoops hitting in the snoop filter with multiple (>1) holders of the requested data.
system.tol2bus.snoop_filter.hit_single_requests        19916                       # Number of requests hitting in the snoop filter with a single holder of the requested data.
system.tol2bus.snoop_filter.hit_single_snoops            0                       # Number of snoops hitting in the snoop filter with a single holder of the requested data.
system.tol2bus.snoop_filter.tot_requests        40101                       # Total number of requests made to the snoop filter.
system.tol2bus.snoop_filter.tot_snoops              0                       # Total number of snoops made to the snoop filter.
system.clk_domain.clock                          1000                       # Clock period in ticks
system.cpu.dcache.demand_hits::.cpu.data            9                       # number of demand (read+write) hits
system.cpu.dcache.demand_hits::.switch_cpus.data       313995                       # number of demand (read+write) hits
system.cpu.dcache.demand_hits::total           314004                       # number of demand (read+write) hits
system.cpu.dcache.overall_hits::.cpu.data            9                       # number of overall hits
system.cpu.dcache.overall_hits::.switch_cpus.data       313995                       # number of overall hits
system.cpu.dcache.overall_hits::total          314004                       # number of overall hits
system.cpu.dcache.demand_misses::.cpu.data            4                       # number of demand (read+write) misses
system.cpu.dcache.demand_misses::.switch_cpus.data        43101                       # number of demand (read+write) misses
system.cpu.dcache.demand_misses::total          43105                       # number of demand (read+write) misses
system.cpu.dcache.overall_misses::.cpu.data            4                       # number of overall misses
system.cpu.dcache.overall_misses::.switch_cpus.data        43101                       # number of overall misses
system.cpu.dcache.overall_misses::total         43105                       # number of overall misses
system.cpu.dcache.demand_miss_latency::.switch_cpus.data    587941719                       # number of demand (read+write) miss cycles
system.cpu.dcache.demand_miss_latency::total    587941719                       # number of demand (read+write) miss cycles
system.cpu.dcache.overall_miss_latency::.switch_cpus.data    587941719                       # number of overall miss cycles
system.cpu.dcache.overall_miss_latency::total    587941719                       # number of overall miss cycles
system.cpu.dcache.demand_accesses::.cpu.data           13                       # number of demand (read+write) accesses
system.cpu.dcache.demand_accesses::.switch_cpus.data       357096                       # number of demand (read+write) accesses
system.cpu.dcache.demand_accesses::total       357109                       # number of demand (read+write) accesses
system.cpu.dcache.overall_accesses::.cpu.data           13                       # number of overall (read+write) accesses
system.cpu.dcache.overall_accesses::.switch_cpus.data       357096                       # number of overall (read+write) accesses
system.cpu.dcache.overall_accesses::total       357109                       # number of overall (read+write) accesses
system.cpu.dcache.demand_miss_rate::.cpu.data     0.307692                       # miss rate for demand accesses
system.cpu.dcache.demand_miss_rate::.switch_cpus.data     0.120699                       # miss rate for demand accesses
system.cpu.dcache.demand_miss_rate::total     0.120705                       # miss rate for demand accesses
system.cpu.dcache.overall_miss_rate::.cpu.data     0.307692                       # miss rate for overall accesses
system.cpu.dcache.overall_miss_rate::.switch_cpus.data     0.120699                       # miss rate for overall accesses
system.cpu.dcache.overall_miss_rate::total     0.120705                       # miss rate for overall accesses
system.cpu.dcache.demand_avg_miss_latency::.switch_cpus.data 13641.022691                       # average overall miss latency
system.cpu.dcache.demand_avg_miss_latency::total 13639.756850                       # average overall miss latency
system.cpu.dcache.overall_avg_miss_latency::.switch_cpus.data 13641.022691                       # average overall miss latency
system.cpu.dcache.overall_avg_miss_latency::total 13639.756850                       # average overall miss latency
system.cpu.dcache.blocked_cycles::no_mshrs        37763                       # number of cycles access was blocked
system.cpu.dcache.blocked_cycles::no_targets            0                       # number of cycles access was blocked
system.cpu.dcache.blocked::no_mshrs              2634                       # number of cycles access was blocked
system.cpu.dcache.blocked::no_targets               0                       # number of cycles access was blocked
system.cpu.dcache.avg_blocked_cycles::no_mshrs    14.336750                       # average number of cycles each access was blocked
system.cpu.dcache.avg_blocked_cycles::no_targets          nan                       # average number of cycles each access was blocked
system.cpu.dcache.writebacks::.writebacks          566                       # number of writebacks
system.cpu.dcache.writebacks::total               566                       # number of writebacks
system.cpu.dcache.demand_mshr_hits::.switch_cpus.data        22933                       # number of demand (read+write) MSHR hits
system.cpu.dcache.demand_mshr_hits::total        22933                       # number of demand (read+write) MSHR hits
system.cpu.dcache.overall_mshr_hits::.switch_cpus.data        22933                       # number of overall MSHR hits
system.cpu.dcache.overall_mshr_hits::total        22933                       # number of overall MSHR hits
system.cpu.dcache.demand_mshr_misses::.switch_cpus.data        20168                       # number of demand (read+write) MSHR misses
system.cpu.dcache.demand_mshr_misses::total        20168                       # number of demand (read+write) MSHR misses
system.cpu.dcache.overall_mshr_misses::.switch_cpus.data        20168                       # number of overall MSHR misses
system.cpu.dcache.overall_mshr_misses::total        20168                       # number of overall MSHR misses
system.cpu.dcache.demand_mshr_miss_latency::.switch_cpus.data    306118405                       # number of demand (read+write) MSHR miss cycles
system.cpu.dcache.demand_mshr_miss_latency::total    306118405                       # number of demand (read+write) MSHR miss cycles
system.cpu.dcache.overall_mshr_miss_latency::.switch_cpus.data    306118405                       # number of overall MSHR miss cycles
system.cpu.dcache.overall_mshr_miss_latency::total    306118405                       # number of overall MSHR miss cycles
system.cpu.dcache.demand_mshr_miss_rate::.switch_cpus.data     0.056478                       # mshr miss rate for demand accesses
system.cpu.dcache.demand_mshr_miss_rate::total     0.056476                       # mshr miss rate for demand accesses
system.cpu.dcache.overall_mshr_miss_rate::.switch_cpus.data     0.056478                       # mshr miss rate for overall accesses
system.cpu.dcache.overall_mshr_miss_rate::total     0.056476                       # mshr miss rate for overall accesses
system.cpu.dcache.demand_avg_mshr_miss_latency::.switch_cpus.data 15178.421509                       # average overall mshr miss latency
system.cpu.dcache.demand_avg_mshr_miss_latency::total 15178.421509                       # average overall mshr miss latency
system.cpu.dcache.overall_avg_mshr_miss_latency::.switch_cpus.data 15178.421509                       # average overall mshr miss latency
system.cpu.dcache.overall_avg_mshr_miss_latency::total 15178.421509                       # average overall mshr miss latency
system.cpu.dcache.replacements                  19916                       # number of replacements
system.cpu.dcache.ReadReq_hits::.cpu.data            9                       # number of ReadReq hits
system.cpu.dcache.ReadReq_hits::.switch_cpus.data       268684                       # number of ReadReq hits
system.cpu.dcache.ReadReq_hits::total          268693                       # number of ReadReq hits
system.cpu.dcache.ReadReq_misses::.cpu.data            4                       # number of ReadReq misses
system.cpu.dcache.ReadReq_misses::.switch_cpus.data        42530                       # number of ReadReq misses
system.cpu.dcache.ReadReq_misses::total         42534                       # number of ReadReq misses
system.cpu.dcache.ReadReq_miss_latency::.switch_cpus.data    558754793                       # number of ReadReq miss cycles
system.cpu.dcache.ReadReq_miss_latency::total    558754793                       # number of ReadReq miss cycles
system.cpu.dcache.ReadReq_accesses::.cpu.data           13                       # number of ReadReq accesses(hits+misses)
system.cpu.dcache.ReadReq_accesses::.switch_cpus.data       311214                       # number of ReadReq accesses(hits+misses)
system.cpu.dcache.ReadReq_accesses::total       311227                       # number of ReadReq accesses(hits+misses)
system.cpu.dcache.ReadReq_miss_rate::.cpu.data     0.307692                       # miss rate for ReadReq accesses
system.cpu.dcache.ReadReq_miss_rate::.switch_cpus.data     0.136658                       # miss rate for ReadReq accesses
system.cpu.dcache.ReadReq_miss_rate::total     0.136666                       # miss rate for ReadReq accesses
system.cpu.dcache.ReadReq_avg_miss_latency::.switch_cpus.data 13137.897790                       # average ReadReq miss latency
system.cpu.dcache.ReadReq_avg_miss_latency::total 13136.662270                       # average ReadReq miss latency
system.cpu.dcache.ReadReq_mshr_hits::.switch_cpus.data        22933                       # number of ReadReq MSHR hits
system.cpu.dcache.ReadReq_mshr_hits::total        22933                       # number of ReadReq MSHR hits
system.cpu.dcache.ReadReq_mshr_misses::.switch_cpus.data        19597                       # number of ReadReq MSHR misses
system.cpu.dcache.ReadReq_mshr_misses::total        19597                       # number of ReadReq MSHR misses
system.cpu.dcache.ReadReq_mshr_miss_latency::.switch_cpus.data    277300345                       # number of ReadReq MSHR miss cycles
system.cpu.dcache.ReadReq_mshr_miss_latency::total    277300345                       # number of ReadReq MSHR miss cycles
system.cpu.dcache.ReadReq_mshr_miss_rate::.switch_cpus.data     0.062970                       # mshr miss rate for ReadReq accesses
system.cpu.dcache.ReadReq_mshr_miss_rate::total     0.062967                       # mshr miss rate for ReadReq accesses
system.cpu.dcache.ReadReq_avg_mshr_miss_latency::.switch_cpus.data 14150.142624                       # average ReadReq mshr miss latency
system.cpu.dcache.ReadReq_avg_mshr_miss_latency::total 14150.142624                       # average ReadReq mshr miss latency
system.cpu.dcache.WriteReq_hits::.switch_cpus.data        45311                       # number of WriteReq hits
system.cpu.dcache.WriteReq_hits::total          45311                       # number of WriteReq hits
system.cpu.dcache.WriteReq_misses::.switch_cpus.data          571                       # number of WriteReq misses
system.cpu.dcache.WriteReq_misses::total          571                       # number of WriteReq misses
system.cpu.dcache.WriteReq_miss_latency::.switch_cpus.data     29186926                       # number of WriteReq miss cycles
system.cpu.dcache.WriteReq_miss_latency::total     29186926                       # number of WriteReq miss cycles
system.cpu.dcache.WriteReq_accesses::.switch_cpus.data        45882                       # number of WriteReq accesses(hits+misses)
system.cpu.dcache.WriteReq_accesses::total        45882                       # number of WriteReq accesses(hits+misses)
system.cpu.dcache.WriteReq_miss_rate::.switch_cpus.data     0.012445                       # miss rate for WriteReq accesses
system.cpu.dcache.WriteReq_miss_rate::total     0.012445                       # miss rate for WriteReq accesses
system.cpu.dcache.WriteReq_avg_miss_latency::.switch_cpus.data 51115.457093                       # average WriteReq miss latency
system.cpu.dcache.WriteReq_avg_miss_latency::total 51115.457093                       # average WriteReq miss latency
system.cpu.dcache.WriteReq_mshr_misses::.switch_cpus.data          571                       # number of WriteReq MSHR misses
system.cpu.dcache.WriteReq_mshr_misses::total          571                       # number of WriteReq MSHR misses
system.cpu.dcache.WriteReq_mshr_miss_latency::.switch_cpus.data     28818060                       # number of WriteReq MSHR miss cycles
system.cpu.dcache.WriteReq_mshr_miss_latency::total     28818060                       # number of WriteReq MSHR miss cycles
system.cpu.dcache.WriteReq_mshr_miss_rate::.switch_cpus.data     0.012445                       # mshr miss rate for WriteReq accesses
system.cpu.dcache.WriteReq_mshr_miss_rate::total     0.012445                       # mshr miss rate for WriteReq accesses
system.cpu.dcache.WriteReq_avg_mshr_miss_latency::.switch_cpus.data 50469.457093                       # average WriteReq mshr miss latency
system.cpu.dcache.WriteReq_avg_mshr_miss_latency::total 50469.457093                       # average WriteReq mshr miss latency
system.cpu.dcache.power_state.pwrStateResidencyTicks::UNDEFINED 626001683038                       # Cumulative time (in ticks) in various power states
system.cpu.dcache.tags.tagsinuse           249.665391                       # Cycle average of tags in use
system.cpu.dcache.tags.total_refs               61107                       # Total number of references to valid blocks.
system.cpu.dcache.tags.sampled_refs             19916                       # Sample count of references to valid blocks.
system.cpu.dcache.tags.avg_refs              3.068237                       # Average number of references to valid blocks.
system.cpu.dcache.tags.warmup_cycle      625786909033                       # Cycle when the warmup percentage was hit.
system.cpu.dcache.tags.occ_blocks::.cpu.data     2.275674                       # Average occupied blocks per requestor
system.cpu.dcache.tags.occ_blocks::.switch_cpus.data   247.389717                       # Average occupied blocks per requestor
system.cpu.dcache.tags.occ_percent::.cpu.data     0.008889                       # Average percentage of cache occupancy
system.cpu.dcache.tags.occ_percent::.switch_cpus.data     0.966366                       # Average percentage of cache occupancy
system.cpu.dcache.tags.occ_percent::total     0.975255                       # Average percentage of cache occupancy
system.cpu.dcache.tags.occ_task_id_blocks::1024          256                       # Occupied blocks per task id
system.cpu.dcache.tags.age_task_id_blocks_1024::0          251                       # Occupied blocks per task id
system.cpu.dcache.tags.age_task_id_blocks_1024::1            3                       # Occupied blocks per task id
system.cpu.dcache.tags.age_task_id_blocks_1024::2            2                       # Occupied blocks per task id
system.cpu.dcache.tags.occ_task_id_percent::1024            1                       # Percentage of cache occupancy per task id
system.cpu.dcache.tags.tag_accesses           2877044                       # Number of tag accesses
system.cpu.dcache.tags.data_accesses          2877044                       # Number of data accesses
system.cpu.dcache.tags.power_state.pwrStateResidencyTicks::UNDEFINED 626001683038                       # Cumulative time (in ticks) in various power states
system.cpu.dtb.instHits                             0                       # ITB inst hits
system.cpu.dtb.instMisses                           0                       # ITB inst misses
system.cpu.dtb.readHits                             0                       # DTB read hits
system.cpu.dtb.readMisses                           0                       # DTB read misses
system.cpu.dtb.writeHits                            0                       # DTB write hits
system.cpu.dtb.writeMisses                          0                       # DTB write misses
system.cpu.dtb.inserts                              0                       # Number of times an entry is inserted into the TLB
system.cpu.dtb.flushTlb                             2                       # Number of times complete TLB was flushed
system.cpu.dtb.flushTlbMva                          0                       # Number of times TLB was flushed by MVA
system.cpu.dtb.flushTlbMvaAsid                      0                       # Number of times TLB was flushed by MVA & ASID
system.cpu.dtb.flushTlbAsid                         0                       # Number of times TLB was flushed by ASID
system.cpu.dtb.flushedEntries                       0                       # Number of entries that have been flushed from TLB
system.cpu.dtb.alignFaults                          0                       # Number of TLB faults due to alignment restrictions
system.cpu.dtb.prefetchFaults                       0                       # Number of TLB faults due to prefetch
system.cpu.dtb.domainFaults                         0                       # Number of TLB faults due to domain restrictions
system.cpu.dtb.permsFaults                          0                       # Number of TLB faults due to permissions restrictions
system.cpu.dtb.readAccesses                         0                       # DTB read accesses
system.cpu.dtb.writeAccesses                        0                       # DTB write accesses
system.cpu.dtb.instAccesses                         0                       # ITB inst accesses
system.cpu.dtb.hits                                 0                       # Total TLB (inst and data) hits
system.cpu.dtb.misses                               0                       # Total TLB (inst and data) misses
system.cpu.dtb.accesses                             0                       # Total TLB (inst and data) accesses
system.cpu.dtb.stage2_mmu.stage2_tlb.instHits            0                       # ITB inst hits
system.cpu.dtb.stage2_mmu.stage2_tlb.instMisses            0                       # ITB inst misses
system.cpu.dtb.stage2_mmu.stage2_tlb.readHits            0                       # DTB read hits
system.cpu.dtb.stage2_mmu.stage2_tlb.readMisses            0                       # DTB read misses
system.cpu.dtb.stage2_mmu.stage2_tlb.writeHits            0                       # DTB write hits
system.cpu.dtb.stage2_mmu.stage2_tlb.writeMisses            0                       # DTB write misses
system.cpu.dtb.stage2_mmu.stage2_tlb.inserts            0                       # Number of times an entry is inserted into the TLB
system.cpu.dtb.stage2_mmu.stage2_tlb.flushTlb            0                       # Number of times complete TLB was flushed
system.cpu.dtb.stage2_mmu.stage2_tlb.flushTlbMva            0                       # Number of times TLB was flushed by MVA
system.cpu.dtb.stage2_mmu.stage2_tlb.flushTlbMvaAsid            0                       # Number of times TLB was flushed by MVA & ASID
system.cpu.dtb.stage2_mmu.stage2_tlb.flushTlbAsid            0                       # Number of times TLB was flushed by ASID
system.cpu.dtb.stage2_mmu.stage2_tlb.flushedEntries            0                       # Number of entries that have been flushed from TLB
system.cpu.dtb.stage2_mmu.stage2_tlb.alignFaults            0                       # Number of TLB faults due to alignment restrictions
system.cpu.dtb.stage2_mmu.stage2_tlb.prefetchFaults            0                       # Number of TLB faults due to prefetch
system.cpu.dtb.stage2_mmu.stage2_tlb.domainFaults            0                       # Number of TLB faults due to domain restrictions
system.cpu.dtb.stage2_mmu.stage2_tlb.permsFaults            0                       # Number of TLB faults due to permissions restrictions
system.cpu.dtb.stage2_mmu.stage2_tlb.readAccesses            0                       # DTB read accesses
system.cpu.dtb.stage2_mmu.stage2_tlb.writeAccesses            0                       # DTB write accesses
system.cpu.dtb.stage2_mmu.stage2_tlb.instAccesses            0                       # ITB inst accesses
system.cpu.dtb.stage2_mmu.stage2_tlb.hits            0                       # Total TLB (inst and data) hits
system.cpu.dtb.stage2_mmu.stage2_tlb.misses            0                       # Total TLB (inst and data) misses
system.cpu.dtb.stage2_mmu.stage2_tlb.accesses            0                       # Total TLB (inst and data) accesses
system.cpu.dtb.stage2_mmu.stage2_tlb.walker.walks            0                       # Table walker walks requested
system.cpu.dtb.stage2_mmu.stage2_tlb.walker.requestOrigin_Requested::Data            0                       # Table walker requests started/completed, data/inst
system.cpu.dtb.stage2_mmu.stage2_tlb.walker.requestOrigin_Requested::Inst            0                       # Table walker requests started/completed, data/inst
system.cpu.dtb.stage2_mmu.stage2_tlb.walker.requestOrigin_Requested::total            0                       # Table walker requests started/completed, data/inst
system.cpu.dtb.stage2_mmu.stage2_tlb.walker.requestOrigin_Completed::Data            0                       # Table walker requests started/completed, data/inst
system.cpu.dtb.stage2_mmu.stage2_tlb.walker.requestOrigin_Completed::Inst            0                       # Table walker requests started/completed, data/inst
system.cpu.dtb.stage2_mmu.stage2_tlb.walker.requestOrigin_Completed::total            0                       # Table walker requests started/completed, data/inst
system.cpu.dtb.stage2_mmu.stage2_tlb.walker.requestOrigin::total            0                       # Table walker requests started/completed, data/inst
system.cpu.dtb.stage2_mmu.stage2_tlb.walker.power_state.pwrStateResidencyTicks::UNDEFINED 626001683038                       # Cumulative time (in ticks) in various power states
system.cpu.dtb.walker.walks                         0                       # Table walker walks requested
system.cpu.dtb.walker.requestOrigin_Requested::Data            0                       # Table walker requests started/completed, data/inst
system.cpu.dtb.walker.requestOrigin_Requested::Inst            0                       # Table walker requests started/completed, data/inst
system.cpu.dtb.walker.requestOrigin_Requested::total            0                       # Table walker requests started/completed, data/inst
system.cpu.dtb.walker.requestOrigin_Completed::Data            0                       # Table walker requests started/completed, data/inst
system.cpu.dtb.walker.requestOrigin_Completed::Inst            0                       # Table walker requests started/completed, data/inst
system.cpu.dtb.walker.requestOrigin_Completed::total            0                       # Table walker requests started/completed, data/inst
system.cpu.dtb.walker.requestOrigin::total            0                       # Table walker requests started/completed, data/inst
system.cpu.dtb.walker.power_state.pwrStateResidencyTicks::UNDEFINED 626001683038                       # Cumulative time (in ticks) in various power states
system.cpu.icache.demand_hits::.cpu.inst           28                       # number of demand (read+write) hits
system.cpu.icache.demand_hits::.switch_cpus.inst        95987                       # number of demand (read+write) hits
system.cpu.icache.demand_hits::total            96015                       # number of demand (read+write) hits
system.cpu.icache.overall_hits::.cpu.inst           28                       # number of overall hits
system.cpu.icache.overall_hits::.switch_cpus.inst        95987                       # number of overall hits
system.cpu.icache.overall_hits::total           96015                       # number of overall hits
system.cpu.icache.demand_misses::.cpu.inst            2                       # number of demand (read+write) misses
system.cpu.icache.demand_misses::.switch_cpus.inst           28                       # number of demand (read+write) misses
system.cpu.icache.demand_misses::total             30                       # number of demand (read+write) misses
system.cpu.icache.overall_misses::.cpu.inst            2                       # number of overall misses
system.cpu.icache.overall_misses::.switch_cpus.inst           28                       # number of overall misses
system.cpu.icache.overall_misses::total            30                       # number of overall misses
system.cpu.icache.demand_miss_latency::.switch_cpus.inst      1873723                       # number of demand (read+write) miss cycles
system.cpu.icache.demand_miss_latency::total      1873723                       # number of demand (read+write) miss cycles
system.cpu.icache.overall_miss_latency::.switch_cpus.inst      1873723                       # number of overall miss cycles
system.cpu.icache.overall_miss_latency::total      1873723                       # number of overall miss cycles
system.cpu.icache.demand_accesses::.cpu.inst           30                       # number of demand (read+write) accesses
system.cpu.icache.demand_accesses::.switch_cpus.inst        96015                       # number of demand (read+write) accesses
system.cpu.icache.demand_accesses::total        96045                       # number of demand (read+write) accesses
system.cpu.icache.overall_accesses::.cpu.inst           30                       # number of overall (read+write) accesses
system.cpu.icache.overall_accesses::.switch_cpus.inst        96015                       # number of overall (read+write) accesses
system.cpu.icache.overall_accesses::total        96045                       # number of overall (read+write) accesses
system.cpu.icache.demand_miss_rate::.cpu.inst     0.066667                       # miss rate for demand accesses
system.cpu.icache.demand_miss_rate::.switch_cpus.inst     0.000292                       # miss rate for demand accesses
system.cpu.icache.demand_miss_rate::total     0.000312                       # miss rate for demand accesses
system.cpu.icache.overall_miss_rate::.cpu.inst     0.066667                       # miss rate for overall accesses
system.cpu.icache.overall_miss_rate::.switch_cpus.inst     0.000292                       # miss rate for overall accesses
system.cpu.icache.overall_miss_rate::total     0.000312                       # miss rate for overall accesses
system.cpu.icache.demand_avg_miss_latency::.switch_cpus.inst 66918.678571                       # average overall miss latency
system.cpu.icache.demand_avg_miss_latency::total 62457.433333                       # average overall miss latency
system.cpu.icache.overall_avg_miss_latency::.switch_cpus.inst 66918.678571                       # average overall miss latency
system.cpu.icache.overall_avg_miss_latency::total 62457.433333                       # average overall miss latency
system.cpu.icache.blocked_cycles::no_mshrs            0                       # number of cycles access was blocked
system.cpu.icache.blocked_cycles::no_targets            0                       # number of cycles access was blocked
system.cpu.icache.blocked::no_mshrs                 0                       # number of cycles access was blocked
system.cpu.icache.blocked::no_targets               0                       # number of cycles access was blocked
system.cpu.icache.avg_blocked_cycles::no_mshrs          nan                       # average number of cycles each access was blocked
system.cpu.icache.avg_blocked_cycles::no_targets          nan                       # average number of cycles each access was blocked
system.cpu.icache.demand_mshr_hits::.switch_cpus.inst           17                       # number of demand (read+write) MSHR hits
system.cpu.icache.demand_mshr_hits::total           17                       # number of demand (read+write) MSHR hits
system.cpu.icache.overall_mshr_hits::.switch_cpus.inst           17                       # number of overall MSHR hits
system.cpu.icache.overall_mshr_hits::total           17                       # number of overall MSHR hits
system.cpu.icache.demand_mshr_misses::.switch_cpus.inst           11                       # number of demand (read+write) MSHR misses
system.cpu.icache.demand_mshr_misses::total           11                       # number of demand (read+write) MSHR misses
system.cpu.icache.overall_mshr_misses::.switch_cpus.inst           11                       # number of overall MSHR misses
system.cpu.icache.overall_mshr_misses::total           11                       # number of overall MSHR misses
system.cpu.icache.demand_mshr_miss_latency::.switch_cpus.inst       873069                       # number of demand (read+write) MSHR miss cycles
system.cpu.icache.demand_mshr_miss_latency::total       873069                       # number of demand (read+write) MSHR miss cycles
system.cpu.icache.overall_mshr_miss_latency::.switch_cpus.inst       873069                       # number of overall MSHR miss cycles
system.cpu.icache.overall_mshr_miss_latency::total       873069                       # number of overall MSHR miss cycles
system.cpu.icache.demand_mshr_miss_rate::.switch_cpus.inst     0.000115                       # mshr miss rate for demand accesses
system.cpu.icache.demand_mshr_miss_rate::total     0.000115                       # mshr miss rate for demand accesses
system.cpu.icache.overall_mshr_miss_rate::.switch_cpus.inst     0.000115                       # mshr miss rate for overall accesses
system.cpu.icache.overall_mshr_miss_rate::total     0.000115                       # mshr miss rate for overall accesses
system.cpu.icache.demand_avg_mshr_miss_latency::.switch_cpus.inst 79369.909091                       # average overall mshr miss latency
system.cpu.icache.demand_avg_mshr_miss_latency::total 79369.909091                       # average overall mshr miss latency
system.cpu.icache.overall_avg_mshr_miss_latency::.switch_cpus.inst 79369.909091                       # average overall mshr miss latency
system.cpu.icache.overall_avg_mshr_miss_latency::total 79369.909091                       # average overall mshr miss latency
system.cpu.icache.replacements                      0                       # number of replacements
system.cpu.icache.ReadReq_hits::.cpu.inst           28                       # number of ReadReq hits
system.cpu.icache.ReadReq_hits::.switch_cpus.inst        95987                       # number of ReadReq hits
system.cpu.icache.ReadReq_hits::total           96015                       # number of ReadReq hits
system.cpu.icache.ReadReq_misses::.cpu.inst            2                       # number of ReadReq misses
system.cpu.icache.ReadReq_misses::.switch_cpus.inst           28                       # number of ReadReq misses
system.cpu.icache.ReadReq_misses::total            30                       # number of ReadReq misses
system.cpu.icache.ReadReq_miss_latency::.switch_cpus.inst      1873723                       # number of ReadReq miss cycles
system.cpu.icache.ReadReq_miss_latency::total      1873723                       # number of ReadReq miss cycles
system.cpu.icache.ReadReq_accesses::.cpu.inst           30                       # number of ReadReq accesses(hits+misses)
system.cpu.icache.ReadReq_accesses::.switch_cpus.inst        96015                       # number of ReadReq accesses(hits+misses)
system.cpu.icache.ReadReq_accesses::total        96045                       # number of ReadReq accesses(hits+misses)
system.cpu.icache.ReadReq_miss_rate::.cpu.inst     0.066667                       # miss rate for ReadReq accesses
system.cpu.icache.ReadReq_miss_rate::.switch_cpus.inst     0.000292                       # miss rate for ReadReq accesses
system.cpu.icache.ReadReq_miss_rate::total     0.000312                       # miss rate for ReadReq accesses
system.cpu.icache.ReadReq_avg_miss_latency::.switch_cpus.inst 66918.678571                       # average ReadReq miss latency
system.cpu.icache.ReadReq_avg_miss_latency::total 62457.433333                       # average ReadReq miss latency
system.cpu.icache.ReadReq_mshr_hits::.switch_cpus.inst           17                       # number of ReadReq MSHR hits
system.cpu.icache.ReadReq_mshr_hits::total           17                       # number of ReadReq MSHR hits
system.cpu.icache.ReadReq_mshr_misses::.switch_cpus.inst           11                       # number of ReadReq MSHR misses
system.cpu.icache.ReadReq_mshr_misses::total           11                       # number of ReadReq MSHR misses
system.cpu.icache.ReadReq_mshr_miss_latency::.switch_cpus.inst       873069                       # number of ReadReq MSHR miss cycles
system.cpu.icache.ReadReq_mshr_miss_latency::total       873069                       # number of ReadReq MSHR miss cycles
system.cpu.icache.ReadReq_mshr_miss_rate::.switch_cpus.inst     0.000115                       # mshr miss rate for ReadReq accesses
system.cpu.icache.ReadReq_mshr_miss_rate::total     0.000115                       # mshr miss rate for ReadReq accesses
system.cpu.icache.ReadReq_avg_mshr_miss_latency::.switch_cpus.inst 79369.909091                       # average ReadReq mshr miss latency
system.cpu.icache.ReadReq_avg_mshr_miss_latency::total 79369.909091                       # average ReadReq mshr miss latency
system.cpu.icache.power_state.pwrStateResidencyTicks::UNDEFINED 626001683038                       # Cumulative time (in ticks) in various power states
system.cpu.icache.tags.tagsinuse            12.968587                       # Cycle average of tags in use
system.cpu.icache.tags.total_refs                   0                       # Total number of references to valid blocks.
system.cpu.icache.tags.sampled_refs                 0                       # Sample count of references to valid blocks.
system.cpu.icache.tags.avg_refs                   nan                       # Average number of references to valid blocks.
system.cpu.icache.tags.warmup_cycle      625786909033                       # Cycle when the warmup percentage was hit.
system.cpu.icache.tags.occ_blocks::.cpu.inst     1.999979                       # Average occupied blocks per requestor
system.cpu.icache.tags.occ_blocks::.switch_cpus.inst    10.968608                       # Average occupied blocks per requestor
system.cpu.icache.tags.occ_percent::.cpu.inst     0.003906                       # Average percentage of cache occupancy
system.cpu.icache.tags.occ_percent::.switch_cpus.inst     0.021423                       # Average percentage of cache occupancy
system.cpu.icache.tags.occ_percent::total     0.025329                       # Average percentage of cache occupancy
system.cpu.icache.tags.occ_task_id_blocks::1024           13                       # Occupied blocks per task id
system.cpu.icache.tags.age_task_id_blocks_1024::2           13                       # Occupied blocks per task id
system.cpu.icache.tags.occ_task_id_percent::1024     0.025391                       # Percentage of cache occupancy per task id
system.cpu.icache.tags.tag_accesses            768373                       # Number of tag accesses
system.cpu.icache.tags.data_accesses           768373                       # Number of data accesses
system.cpu.icache.tags.power_state.pwrStateResidencyTicks::UNDEFINED 626001683038                       # Cumulative time (in ticks) in various power states
system.cpu.itb.instHits                             0                       # ITB inst hits
system.cpu.itb.instMisses                           0                       # ITB inst misses
system.cpu.itb.readHits                             0                       # DTB read hits
system.cpu.itb.readMisses                           0                       # DTB read misses
system.cpu.itb.writeHits                            0                       # DTB write hits
system.cpu.itb.writeMisses                          0                       # DTB write misses
system.cpu.itb.inserts                              0                       # Number of times an entry is inserted into the TLB
system.cpu.itb.flushTlb                             2                       # Number of times complete TLB was flushed
system.cpu.itb.flushTlbMva                          0                       # Number of times TLB was flushed by MVA
system.cpu.itb.flushTlbMvaAsid                      0                       # Number of times TLB was flushed by MVA & ASID
system.cpu.itb.flushTlbAsid                         0                       # Number of times TLB was flushed by ASID
system.cpu.itb.flushedEntries                       0                       # Number of entries that have been flushed from TLB
system.cpu.itb.alignFaults                          0                       # Number of TLB faults due to alignment restrictions
system.cpu.itb.prefetchFaults                       0                       # Number of TLB faults due to prefetch
system.cpu.itb.domainFaults                         0                       # Number of TLB faults due to domain restrictions
system.cpu.itb.permsFaults                          0                       # Number of TLB faults due to permissions restrictions
system.cpu.itb.readAccesses                         0                       # DTB read accesses
system.cpu.itb.writeAccesses                        0                       # DTB write accesses
system.cpu.itb.instAccesses                         0                       # ITB inst accesses
system.cpu.itb.hits                                 0                       # Total TLB (inst and data) hits
system.cpu.itb.misses                               0                       # Total TLB (inst and data) misses
system.cpu.itb.accesses                             0                       # Total TLB (inst and data) accesses
system.cpu.itb.stage2_mmu.stage2_tlb.instHits            0                       # ITB inst hits
system.cpu.itb.stage2_mmu.stage2_tlb.instMisses            0                       # ITB inst misses
system.cpu.itb.stage2_mmu.stage2_tlb.readHits            0                       # DTB read hits
system.cpu.itb.stage2_mmu.stage2_tlb.readMisses            0                       # DTB read misses
system.cpu.itb.stage2_mmu.stage2_tlb.writeHits            0                       # DTB write hits
system.cpu.itb.stage2_mmu.stage2_tlb.writeMisses            0                       # DTB write misses
system.cpu.itb.stage2_mmu.stage2_tlb.inserts            0                       # Number of times an entry is inserted into the TLB
system.cpu.itb.stage2_mmu.stage2_tlb.flushTlb            0                       # Number of times complete TLB was flushed
system.cpu.itb.stage2_mmu.stage2_tlb.flushTlbMva            0                       # Number of times TLB was flushed by MVA
system.cpu.itb.stage2_mmu.stage2_tlb.flushTlbMvaAsid            0                       # Number of times TLB was flushed by MVA & ASID
system.cpu.itb.stage2_mmu.stage2_tlb.flushTlbAsid            0                       # Number of times TLB was flushed by ASID
system.cpu.itb.stage2_mmu.stage2_tlb.flushedEntries            0                       # Number of entries that have been flushed from TLB
system.cpu.itb.stage2_mmu.stage2_tlb.alignFaults            0                       # Number of TLB faults due to alignment restrictions
system.cpu.itb.stage2_mmu.stage2_tlb.prefetchFaults            0                       # Number of TLB faults due to prefetch
system.cpu.itb.stage2_mmu.stage2_tlb.domainFaults            0                       # Number of TLB faults due to domain restrictions
system.cpu.itb.stage2_mmu.stage2_tlb.permsFaults            0                       # Number of TLB faults due to permissions restrictions
system.cpu.itb.stage2_mmu.stage2_tlb.readAccesses            0                       # DTB read accesses
system.cpu.itb.stage2_mmu.stage2_tlb.writeAccesses            0                       # DTB write accesses
system.cpu.itb.stage2_mmu.stage2_tlb.instAccesses            0                       # ITB inst accesses
system.cpu.itb.stage2_mmu.stage2_tlb.hits            0                       # Total TLB (inst and data) hits
system.cpu.itb.stage2_mmu.stage2_tlb.misses            0                       # Total TLB (inst and data) misses
system.cpu.itb.stage2_mmu.stage2_tlb.accesses            0                       # Total TLB (inst and data) accesses
system.cpu.itb.stage2_mmu.stage2_tlb.walker.walks            0                       # Table walker walks requested
system.cpu.itb.stage2_mmu.stage2_tlb.walker.requestOrigin_Requested::Data            0                       # Table walker requests started/completed, data/inst
system.cpu.itb.stage2_mmu.stage2_tlb.walker.requestOrigin_Requested::Inst            0                       # Table walker requests started/completed, data/inst
system.cpu.itb.stage2_mmu.stage2_tlb.walker.requestOrigin_Requested::total            0                       # Table walker requests started/completed, data/inst
system.cpu.itb.stage2_mmu.stage2_tlb.walker.requestOrigin_Completed::Data            0                       # Table walker requests started/completed, data/inst
system.cpu.itb.stage2_mmu.stage2_tlb.walker.requestOrigin_Completed::Inst            0                       # Table walker requests started/completed, data/inst
system.cpu.itb.stage2_mmu.stage2_tlb.walker.requestOrigin_Completed::total            0                       # Table walker requests started/completed, data/inst
system.cpu.itb.stage2_mmu.stage2_tlb.walker.requestOrigin::total            0                       # Table walker requests started/completed, data/inst
system.cpu.itb.stage2_mmu.stage2_tlb.walker.power_state.pwrStateResidencyTicks::UNDEFINED 626001683038                       # Cumulative time (in ticks) in various power states
system.cpu.itb.walker.walks                         0                       # Table walker walks requested
system.cpu.itb.walker.requestOrigin_Requested::Data            0                       # Table walker requests started/completed, data/inst
system.cpu.itb.walker.requestOrigin_Requested::Inst            0                       # Table walker requests started/completed, data/inst
system.cpu.itb.walker.requestOrigin_Requested::total            0                       # Table walker requests started/completed, data/inst
system.cpu.itb.walker.requestOrigin_Completed::Data            0                       # Table walker requests started/completed, data/inst
system.cpu.itb.walker.requestOrigin_Completed::Inst            0                       # Table walker requests started/completed, data/inst
system.cpu.itb.walker.requestOrigin_Completed::total            0                       # Table walker requests started/completed, data/inst
system.cpu.itb.walker.requestOrigin::total            0                       # Table walker requests started/completed, data/inst
system.cpu.itb.walker.power_state.pwrStateResidencyTicks::UNDEFINED 626001683038                       # Cumulative time (in ticks) in various power states
system.cpu.power_state.numTransitions               1                       # Number of power state transitions
system.cpu.power_state.pwrStateResidencyTicks::ON 625786918400                       # Cumulative time (in ticks) in various power states
system.cpu.power_state.pwrStateResidencyTicks::OFF    214764638                       # Cumulative time (in ticks) in various power states
system.cpu.thread_0.numInsts                        0                       # Number of Instructions committed
system.cpu.thread_0.numOps                          0                       # Number of Ops committed
system.cpu.thread_0.numMemRefs                      0                       # Number of Memory References
system.cpu_clk_domain.clock                       323                       # Clock period in ticks
system.cpu_voltage_domain.voltage                   1                       # Voltage in Volts
system.l2.demand_hits::.switch_cpus.data        18323                       # number of demand (read+write) hits
system.l2.demand_hits::total                    18323                       # number of demand (read+write) hits
system.l2.overall_hits::.switch_cpus.data        18323                       # number of overall hits
system.l2.overall_hits::total                   18323                       # number of overall hits
system.l2.demand_misses::.cpu.inst                  2                       # number of demand (read+write) misses
system.l2.demand_misses::.cpu.data                  4                       # number of demand (read+write) misses
system.l2.demand_misses::.switch_cpus.inst           11                       # number of demand (read+write) misses
system.l2.demand_misses::.switch_cpus.data         1845                       # number of demand (read+write) misses
system.l2.demand_misses::total                   1862                       # number of demand (read+write) misses
system.l2.overall_misses::.cpu.inst                 2                       # number of overall misses
system.l2.overall_misses::.cpu.data                 4                       # number of overall misses
system.l2.overall_misses::.switch_cpus.inst           11                       # number of overall misses
system.l2.overall_misses::.switch_cpus.data         1845                       # number of overall misses
[...]
system.switch_cpus.fetch.icacheStallCycles      1088476                       # Number of cycles fetch is stalled on an Icache miss
system.switch_cpus.fetch.insts               10995492                       # Number of instructions fetch has processed
system.switch_cpus.fetch.branches             1610249                       # Number of branches that fetch encountered
system.switch_cpus.fetch.predictedBranches       911301                       # Number of branches that fetch has predicted taken
system.switch_cpus.fetch.cycles               4838968                       # Number of cycles fetch has run and was not squashing or blocked
system.switch_cpus.fetch.squashCycles           28476                       # Number of cycles fetch has spent squashing
system.switch_cpus.fetch.miscStallCycles          196                       # Number of cycles fetch has spent waiting on interrupts,or bad addresses, or out of MSHRs
system.switch_cpus.fetch.pendingTrapStallCycles          200                       # Number of stall cycles due to pending traps
system.switch_cpus.fetch.icacheWaitRetryStallCycles            1                       # Number of stall cycles due to full MSHR
system.switch_cpus.fetch.cacheLines           1079739                       # Number of cache lines fetched
system.switch_cpus.fetch.icacheSquashes          4182                       # Number of outstanding Icache misses that were squashed
system.switch_cpus.fetch.nisnDist::samples      5942079                       # Number of instructions fetched each cycle (Total)
system.switch_cpus.fetch.nisnDist::mean      1.850542                       # Number of instructions fetched each cycle (Total)
system.switch_cpus.fetch.nisnDist::stdev     2.845607                       # Number of instructions fetched each cycle (Total)
system.switch_cpus.fetch.nisnDist::underflows            0      0.00%      0.00% # Number of instructions fetched each cycle (Total)
system.switch_cpus.fetch.nisnDist::0          3804048     64.02%     64.02% # Number of instructions fetched each cycle (Total)
system.switch_cpus.fetch.nisnDist::1           188588      3.17%     67.19% # Number of instructions fetched each cycle (Total)
system.switch_cpus.fetch.nisnDist::2           135348      2.28%     69.47% # Number of instructions fetched each cycle (Total)
system.switch_cpus.fetch.nisnDist::3           258957      4.36%     73.83% # Number of instructions fetched each cycle (Total)
system.switch_cpus.fetch.nisnDist::4           411033      6.92%     80.75% # Number of instructions fetched each cycle (Total)
system.switch_cpus.fetch.nisnDist::5           105975      1.78%     82.53% # Number of instructions fetched each cycle (Total)
system.switch_cpus.fetch.nisnDist::6           262375      4.42%     86.94% # Number of instructions fetched each cycle (Total)
system.switch_cpus.fetch.nisnDist::7           194386      3.27%     90.22% # Number of instructions fetched each cycle (Total)
system.switch_cpus.fetch.nisnDist::8           581369      9.78%    100.00% # Number of instructions fetched each cycle (Total)
system.switch_cpus.fetch.nisnDist::overflows            0      0.00%    100.00% # Number of instructions fetched each cycle (Total)
system.switch_cpus.fetch.nisnDist::min_value            0                       # Number of instructions fetched each cycle (Total)
system.switch_cpus.fetch.nisnDist::max_value            8                       # Number of instructions fetched each cycle (Total)
system.switch_cpus.fetch.nisnDist::total      5942079                       # Number of instructions fetched each cycle (Total)
system.switch_cpus.fetch.branchRate          0.270606                       # Number of branch fetches per cycle
system.switch_cpus.fetch.rate                1.847821                       # Number of inst fetches per cycle
system.switch_cpus.itb.instHits                     0                       # ITB inst hits
system.switch_cpus.itb.instMisses                   0                       # ITB inst misses
system.switch_cpus.itb.readHits                     0                       # DTB read hits
system.switch_cpus.itb.readMisses                   0                       # DTB read misses
system.switch_cpus.itb.writeHits                    0                       # DTB write hits
system.switch_cpus.itb.writeMisses                  0                       # DTB write misses
system.switch_cpus.itb.inserts                      0                       # Number of times an entry is inserted into the TLB
system.switch_cpus.itb.flushTlb                     0                       # Number of times complete TLB was flushed
system.switch_cpus.itb.flushTlbMva                  0                       # Number of times TLB was flushed by MVA
system.switch_cpus.itb.flushTlbMvaAsid              0                       # Number of times TLB was flushed by MVA & ASID
system.switch_cpus.itb.flushTlbAsid                 0                       # Number of times TLB was flushed by ASID
system.switch_cpus.itb.flushedEntries               0                       # Number of entries that have been flushed from TLB
system.switch_cpus.itb.alignFaults                  0                       # Number of TLB faults due to alignment restrictions
system.switch_cpus.itb.prefetchFaults               0                       # Number of TLB faults due to prefetch
system.switch_cpus.itb.domainFaults                 0                       # Number of TLB faults due to domain restrictions
system.switch_cpus.itb.permsFaults                  0                       # Number of TLB faults due to permissions restrictions
system.switch_cpus.itb.readAccesses                 0                       # DTB read accesses
system.switch_cpus.itb.writeAccesses                0                       # DTB write accesses
system.switch_cpus.itb.instAccesses                 0                       # ITB inst accesses
system.switch_cpus.itb.hits                         0                       # Total TLB (inst and data) hits
system.switch_cpus.itb.misses                       0                       # Total TLB (inst and data) misses
system.switch_cpus.itb.accesses                     0                       # Total TLB (inst and data) accesses
system.switch_cpus.itb.stage2_mmu.stage2_tlb.instHits            0                       # ITB inst hits
system.switch_cpus.itb.stage2_mmu.stage2_tlb.instMisses            0                       # ITB inst misses
system.switch_cpus.itb.stage2_mmu.stage2_tlb.readHits            0                       # DTB read hits
system.switch_cpus.itb.stage2_mmu.stage2_tlb.readMisses            0                       # DTB read misses
system.switch_cpus.itb.stage2_mmu.stage2_tlb.writeHits            0                       # DTB write hits
system.switch_cpus.itb.stage2_mmu.stage2_tlb.writeMisses            0                       # DTB write misses
system.switch_cpus.itb.stage2_mmu.stage2_tlb.inserts            0                       # Number of times an entry is inserted into the TLB
system.switch_cpus.itb.stage2_mmu.stage2_tlb.flushTlb            0                       # Number of times complete TLB was flushed
system.switch_cpus.itb.stage2_mmu.stage2_tlb.flushTlbMva            0                       # Number of times TLB was flushed by MVA
system.switch_cpus.itb.stage2_mmu.stage2_tlb.flushTlbMvaAsid            0                       # Number of times TLB was flushed by MVA & ASID
system.switch_cpus.itb.stage2_mmu.stage2_tlb.flushTlbAsid            0                       # Number of times TLB was flushed by ASID
system.switch_cpus.itb.stage2_mmu.stage2_tlb.flushedEntries            0                       # Number of entries that have been flushed from TLB
system.switch_cpus.itb.stage2_mmu.stage2_tlb.alignFaults            0                       # Number of TLB faults due to alignment restrictions
system.switch_cpus.itb.stage2_mmu.stage2_tlb.prefetchFaults            0                       # Number of TLB faults due to prefetch
system.switch_cpus.itb.stage2_mmu.stage2_tlb.domainFaults            0                       # Number of TLB faults due to domain restrictions
system.switch_cpus.itb.stage2_mmu.stage2_tlb.permsFaults            0                       # Number of TLB faults due to permissions restrictions
system.switch_cpus.itb.stage2_mmu.stage2_tlb.readAccesses            0                       # DTB read accesses
system.switch_cpus.itb.stage2_mmu.stage2_tlb.writeAccesses            0                       # DTB write accesses
system.switch_cpus.itb.stage2_mmu.stage2_tlb.instAccesses            0                       # ITB inst accesses
system.switch_cpus.itb.stage2_mmu.stage2_tlb.hits            0                       # Total TLB (inst and data) hits
system.switch_cpus.itb.stage2_mmu.stage2_tlb.misses            0                       # Total TLB (inst and data) misses
system.switch_cpus.itb.stage2_mmu.stage2_tlb.accesses            0                       # Total TLB (inst and data) accesses
system.switch_cpus.itb.stage2_mmu.stage2_tlb.walker.walks            0                       # Table walker walks requested
system.switch_cpus.itb.stage2_mmu.stage2_tlb.walker.requestOrigin_Requested::Data            0                       # Table walker requests started/completed, data/inst
system.switch_cpus.itb.stage2_mmu.stage2_tlb.walker.requestOrigin_Requested::Inst            0                       # Table walker requests started/completed, data/inst
system.switch_cpus.itb.stage2_mmu.stage2_tlb.walker.requestOrigin_Requested::total            0                       # Table walker requests started/completed, data/inst
system.switch_cpus.itb.stage2_mmu.stage2_tlb.walker.requestOrigin_Completed::Data            0                       # Table walker requests started/completed, data/inst
system.switch_cpus.itb.stage2_mmu.stage2_tlb.walker.requestOrigin_Completed::Inst            0                       # Table walker requests started/completed, data/inst
system.switch_cpus.itb.stage2_mmu.stage2_tlb.walker.requestOrigin_Completed::total            0                       # Table walker requests started/completed, data/inst
system.switch_cpus.itb.stage2_mmu.stage2_tlb.walker.requestOrigin::total            0                       # Table walker requests started/completed, data/inst
system.switch_cpus.itb.stage2_mmu.stage2_tlb.walker.power_state.pwrStateResidencyTicks::UNDEFINED   1922017637                       # Cumulative time (in ticks) in various power states
system.switch_cpus.itb.walker.walks                 0                       # Table walker walks requested
system.switch_cpus.itb.walker.requestOrigin_Requested::Data            0                       # Table walker requests started/completed, data/inst
system.switch_cpus.itb.walker.requestOrigin_Requested::Inst            0                       # Table walker requests started/completed, data/inst
system.switch_cpus.itb.walker.requestOrigin_Requested::total            0                       # Table walker requests started/completed, data/inst
system.switch_cpus.itb.walker.requestOrigin_Completed::Data            0                       # Table walker requests started/completed, data/inst
system.switch_cpus.itb.walker.requestOrigin_Completed::Inst            0                       # Table walker requests started/completed, data/inst
system.switch_cpus.itb.walker.requestOrigin_Completed::total            0                       # Table walker requests started/completed, data/inst
system.switch_cpus.itb.walker.requestOrigin::total            0                       # Table walker requests started/completed, data/inst
system.switch_cpus.itb.walker.power_state.pwrStateResidencyTicks::UNDEFINED   1922017637                       # Cumulative time (in ticks) in various power states
system.switch_cpus.lsq0.forwLoads             1405078                       # Number of loads that had data forwarded from stores
system.switch_cpus.lsq0.squashedLoads          239334                       # Number of loads squashed
system.switch_cpus.lsq0.ignoredResponses         1537                       # Number of memory responses ignored because the instruction is squashed
system.switch_cpus.lsq0.memOrderViolation           89                       # Number of memory ordering violations
system.switch_cpus.lsq0.squashedStores          52313                       # Number of stores squashed
system.switch_cpus.lsq0.rescheduledLoads            1                       # Number of loads that were rescheduled
system.switch_cpus.lsq0.blockedByCache            386                       # Number of times an access to memory failed due to the cache being blocked
system.switch_cpus.power_state.pwrStateResidencyTicks::OFF   1922017637                       # Cumulative time (in ticks) in various power states
system.switch_cpus.rename.squashCycles          14195                       # Number of cycles rename is squashing
system.switch_cpus.rename.idleCycles           611197                       # Number of cycles rename is idle
system.switch_cpus.rename.blockCycles          602393                       # Number of cycles rename is blocking
system.switch_cpus.rename.serializeStallCycles         1408                       # count of cycles rename stalledfor serializing inst
system.switch_cpus.rename.runCycles           1440681                       # Number of cycles rename is running
system.switch_cpus.rename.unblockCycles       3272205                       # Number of cycles rename is unblocking
system.switch_cpus.rename.renamedInsts       10620339                       # Number of instructions processed by rename
system.switch_cpus.rename.ROBFullEvents             4                       # Number of times rename has blocked due to ROB full
system.switch_cpus.rename.IQFullEvents          47558                       # Number of times rename has blocked due to IQ full
system.switch_cpus.rename.LQFullEvents        3220652                       # Number of times rename has blocked due to LQ full
system.switch_cpus.rename.SQFullEvents            447                       # Number of times rename has blocked due to SQ full
system.switch_cpus.rename.renamedOperands     13162587                       # Number of destination operands rename has renamed
system.switch_cpus.rename.lookups            15764593                       # Number of register rename lookups that rename has made
system.switch_cpus.rename.intLookups         11076629                       # Number of integer rename lookups
system.switch_cpus.rename.vecLookups               12                       # Number of vector rename lookups
system.switch_cpus.rename.committedMaps      12472399                       # Number of HB maps that are committed
system.switch_cpus.rename.undoneMaps           690198                       # Number of HB maps that are undone due to squashing
system.switch_cpus.rename.serializing              28                       # count of serializing insts renamed
system.switch_cpus.rename.tempSerializing            4                       # count of temporary serializing insts renamed
system.switch_cpus.rename.skidInsts           1684294                       # count of insts added to the skid buffer
system.switch_cpus.rob.reads                 15560306                       # The number of ROB reads
system.switch_cpus.rob.writes                21213119                       # The number of ROB writes
system.switch_cpus.thread_0.numInsts          9999996                       # Number of Instructions committed
system.switch_cpus.thread_0.numOps           10000186                       # Number of Ops committed
system.switch_cpus.thread_0.numMemRefs              0                       # Number of Memory References
system.tol2bus.trans_dist::ReadResp            193246                       # Transaction distribution
system.tol2bus.trans_dist::WritebackDirty        28180                       # Transaction distribution
system.tol2bus.trans_dist::CleanEvict          176184                       # Transaction distribution
system.tol2bus.trans_dist::HardPFReq             9133                       # Transaction distribution
system.tol2bus.trans_dist::ReadExReq             5369                       # Transaction distribution
system.tol2bus.trans_dist::ReadExResp            5369                       # Transaction distribution
system.tol2bus.trans_dist::ReadCleanReq            66                       # Transaction distribution
system.tol2bus.trans_dist::ReadSharedReq       193181                       # Transaction distribution
system.tol2bus.pkt_count_system.cpu.icache.mem_side_port::system.l2.cpu_side_port          132                       # Packet count per connected requestor and responder (bytes)
system.tol2bus.pkt_count_system.cpu.dcache.mem_side_port::system.l2.cpu_side_port       595648                       # Packet count per connected requestor and responder (bytes)
system.tol2bus.pkt_count::total                595780                       # Packet count per connected requestor and responder (bytes)
system.tol2bus.pkt_size_system.cpu.icache.mem_side_port::system.l2.cpu_side_port         8448                       # Cumulative packet size per connected requestor and responder (bytes)
system.tol2bus.pkt_size_system.cpu.dcache.mem_side_port::system.l2.cpu_side_port     29021184                       # Cumulative packet size per connected requestor and responder (bytes)
system.tol2bus.pkt_size::total               29029632                       # Cumulative packet size per connected requestor and responder (bytes)
system.tol2bus.snoops                           14948                       # Total snoops (count)
system.tol2bus.snoopTraffic                       128                       # Total snoop traffic (bytes)
system.tol2bus.snoop_fanout::samples           213564                       # Request fanout histogram
system.tol2bus.snoop_fanout::mean            0.000070                       # Request fanout histogram
system.tol2bus.snoop_fanout::stdev           0.008380                       # Request fanout histogram
system.tol2bus.snoop_fanout::underflows             0      0.00%      0.00% # Request fanout histogram
system.tol2bus.snoop_fanout::0                 213549     99.99%     99.99% # Request fanout histogram
system.tol2bus.snoop_fanout::1                     15      0.01%    100.00% # Request fanout histogram
system.tol2bus.snoop_fanout::2                      0      0.00%    100.00% # Request fanout histogram
system.tol2bus.snoop_fanout::overflows              0      0.00%    100.00% # Request fanout histogram
system.tol2bus.snoop_fanout::min_value              0                       # Request fanout histogram
system.tol2bus.snoop_fanout::max_value              1                       # Request fanout histogram
system.tol2bus.snoop_fanout::total             213564                       # Request fanout histogram
system.tol2bus.power_state.pwrStateResidencyTicks::UNDEFINED   1922017637                       # Cumulative time (in ticks) in various power states
system.tol2bus.reqLayer0.occupancy          164691563                       # Layer occupancy (ticks)
system.tol2bus.reqLayer0.utilization              8.6                       # Layer utilization (%)
system.tol2bus.respLayer0.occupancy            106912                       # Layer occupancy (ticks)
system.tol2bus.respLayer0.utilization             0.0                       # Layer utilization (%)
system.tol2bus.respLayer1.occupancy         320656635                       # Layer occupancy (ticks)
system.tol2bus.respLayer1.utilization            16.7                       # Layer utilization (%)
system.voltage_domain.voltage                       1                       # Voltage in Volts

---------- End Simulation Statistics   ----------
