
---------- Begin Simulation Statistics ----------
final_tick                               264202995067                       # Number of ticks from beginning of simulation (restored from checkpoints and never reset)
host_inst_rate                                 326983                       # Simulator instruction rate (inst/s)
host_mem_usage                               16966284                       # Number of bytes of host memory used
host_op_rate                                   372922                       # Simulator op (including micro ops) rate (op/s)
host_seconds                                     3.06                       # Real time elapsed on the host
host_tick_rate                               76322032                       # Simulator tick rate (ticks/s)
sim_freq                                 1000000000000                       # Frequency of simulated ticks
sim_insts                                     1000030                       # Number of instructions simulated
sim_ops                                       1140546                       # Number of ops (including micro ops) simulated
sim_seconds                                  0.000233                       # Number of seconds simulated
sim_ticks                                   233424667                       # Number of ticks simulated
system.cpu.Branches                                 2                       # Number of branches fetched
system.cpu.committedInsts                          29                       # Number of instructions committed
system.cpu.committedOps                            29                       # Number of ops (including micro ops) committed
system.cpu.idle_fraction                            0                       # Percentage of idle cycles
system.cpu.not_idle_fraction                        1                       # Percentage of non-idle cycles
system.cpu.numCycles                               29                       # number of cpu cycles simulated
system.cpu.numWorkItemsCompleted                    0                       # number of work items this cpu completed
system.cpu.numWorkItemsStarted                      0                       # number of work items this cpu started
system.cpu.num_busy_cycles                         29                       # Number of busy cycles
system.cpu.num_cc_register_reads                    6                       # number of times the CC registers were read
system.cpu.num_cc_register_writes                   6                       # number of times the CC registers were written
system.cpu.num_conditional_control_insts            2                       # number of instructions that are conditional controls
system.cpu.num_fp_alu_accesses                      0                       # Number of float alu accesses
system.cpu.num_fp_insts                             0                       # number of float instructions
system.cpu.num_fp_register_reads                    0                       # number of times the floating registers were read
system.cpu.num_fp_register_writes                   0                       # number of times the floating registers were written
system.cpu.num_func_calls                           0                       # number of times a function call or return occured
system.cpu.num_idle_cycles                          0                       # Number of idle cycles
system.cpu.num_int_alu_accesses                    27                       # Number of integer alu accesses
system.cpu.num_int_insts                           27                       # number of integer instructions
system.cpu.num_int_register_reads                  30                       # number of times the integer registers were read
system.cpu.num_int_register_writes                 26                       # number of times the integer registers were written
system.cpu.num_load_insts                          10                       # Number of load instructions
system.cpu.num_mem_refs                            11                       # number of memory refs
system.cpu.num_store_insts                          1                       # Number of store instructions
system.cpu.num_vec_alu_accesses                     0                       # Number of vector alu accesses
system.cpu.num_vec_insts                            0                       # number of vector instructions
system.cpu.num_vec_register_reads                   0                       # number of times the vector registers were read
system.cpu.num_vec_register_writes                  0                       # number of times the vector registers were written
system.cpu.op_class::No_OpClass                     0      0.00%      0.00% # Class of executed instruction
system.cpu.op_class::IntAlu                        18     62.07%     62.07% # Class of executed instruction
system.cpu.op_class::IntMult                        0      0.00%     62.07% # Class of executed instruction
system.cpu.op_class::IntDiv                         0      0.00%     62.07% # Class of executed instruction
system.cpu.op_class::FloatAdd                       0      0.00%     62.07% # Class of executed instruction
system.cpu.op_class::FloatCmp                       0      0.00%     62.07% # Class of executed instruction
system.cpu.op_class::FloatCvt                       0      0.00%     62.07% # Class of executed instruction
system.cpu.op_class::FloatMult                      0      0.00%     62.07% # Class of executed instruction
system.cpu.op_class::FloatMultAcc                   0      0.00%     62.07% # Class of executed instruction
system.cpu.op_class::FloatDiv                       0      0.00%     62.07% # Class of executed instruction
system.cpu.op_class::FloatMisc                      0      0.00%     62.07% # Class of executed instruction
system.cpu.op_class::FloatSqrt                      0      0.00%     62.07% # Class of executed instruction
system.cpu.op_class::SimdAdd                        0      0.00%     62.07% # Class of executed instruction
system.cpu.op_class::SimdAddAcc                     0      0.00%     62.07% # Class of executed instruction
system.cpu.op_class::SimdAlu                        0      0.00%     62.07% # Class of executed instruction
system.cpu.op_class::SimdCmp                        0      0.00%     62.07% # Class of executed instruction
system.cpu.op_class::SimdCvt                        0      0.00%     62.07% # Class of executed instruction
system.cpu.op_class::SimdMisc                       0      0.00%     62.07% # Class of executed instruction
system.cpu.op_class::SimdMult                       0      0.00%     62.07% # Class of executed instruction
system.cpu.op_class::SimdMultAcc                    0      0.00%     62.07% # Class of executed instruction
system.cpu.op_class::SimdShift                      0      0.00%     62.07% # Class of executed instruction
system.cpu.op_class::SimdShiftAcc                   0      0.00%     62.07% # Class of executed instruction
system.cpu.op_class::SimdDiv                        0      0.00%     62.07% # Class of executed instruction
system.cpu.op_class::SimdSqrt                       0      0.00%     62.07% # Class of executed instruction
system.cpu.op_class::SimdFloatAdd                   0      0.00%     62.07% # Class of executed instruction
system.cpu.op_class::SimdFloatAlu                   0      0.00%     62.07% # Class of executed instruction
system.cpu.op_class::SimdFloatCmp                   0      0.00%     62.07% # Class of executed instruction
system.cpu.op_class::SimdFloatCvt                   0      0.00%     62.07% # Class of executed instruction
system.cpu.op_class::SimdFloatDiv                   0      0.00%     62.07% # Class of executed instruction
system.cpu.op_class::SimdFloatMisc                  0      0.00%     62.07% # Class of executed instruction
system.cpu.op_class::SimdFloatMult                  0      0.00%     62.07% # Class of executed instruction
system.cpu.op_class::SimdFloatMultAcc               0      0.00%     62.07% # Class of executed instruction
system.cpu.op_class::SimdFloatSqrt                  0      0.00%     62.07% # Class of executed instruction
system.cpu.op_class::SimdReduceAdd                  0      0.00%     62.07% # Class of executed instruction
system.cpu.op_class::SimdReduceAlu                  0      0.00%     62.07% # Class of executed instruction
system.cpu.op_class::SimdReduceCmp                  0      0.00%     62.07% # Class of executed instruction
system.cpu.op_class::SimdFloatReduceAdd             0      0.00%     62.07% # Class of executed instruction
system.cpu.op_class::SimdFloatReduceCmp             0      0.00%     62.07% # Class of executed instruction
system.cpu.op_class::SimdAes                        0      0.00%     62.07% # Class of executed instruction
system.cpu.op_class::SimdAesMix                     0      0.00%     62.07% # Class of executed instruction
system.cpu.op_class::SimdSha1Hash                   0      0.00%     62.07% # Class of executed instruction
system.cpu.op_class::SimdSha1Hash2                  0      0.00%     62.07% # Class of executed instruction
system.cpu.op_class::SimdSha256Hash                 0      0.00%     62.07% # Class of executed instruction
system.cpu.op_class::SimdSha256Hash2                0      0.00%     62.07% # Class of executed instruction
system.cpu.op_class::SimdShaSigma2                  0      0.00%     62.07% # Class of executed instruction
system.cpu.op_class::SimdShaSigma3                  0      0.00%     62.07% # Class of executed instruction
system.cpu.op_class::SimdPredAlu                    0      0.00%     62.07% # Class of executed instruction
system.cpu.op_class::MemRead                       10     34.48%     96.55% # Class of executed instruction
system.cpu.op_class::MemWrite                       1      3.45%    100.00% # Class of executed instruction
system.cpu.op_class::FloatMemRead                   0      0.00%    100.00% # Class of executed instruction
system.cpu.op_class::FloatMemWrite                  0      0.00%    100.00% # Class of executed instruction
system.cpu.op_class::IprAccess                      0      0.00%    100.00% # Class of executed instruction
system.cpu.op_class::InstPrefetch                   0      0.00%    100.00% # Class of executed instruction
system.cpu.op_class::total                         29                       # Class of executed instruction
system.cpu.workload.numSyscalls                     0                       # Number of system calls
system.membus.snoop_filter.hit_multi_requests            0                       # Number of requests hitting in the snoop filter with multiple (>1) holders of the requested data.
system.membus.snoop_filter.hit_multi_snoops            0                       # Number of snoops hitting in the snoop filter with multiple (>1) holders of the requested data.
system.membus.snoop_filter.hit_single_requests            0                       # Number of requests hitting in the snoop filter with a single holder of the requested data.
system.membus.snoop_filter.hit_single_snoops            0                       # Number of snoops hitting in the snoop filter with a single holder of the requested data.
system.membus.snoop_filter.tot_requests           424                       # Total number of requests made to the snoop filter.
system.membus.snoop_filter.tot_snoops               0                       # Total number of snoops made to the snoop filter.
system.switch_cpus.cc_regfile_reads            489087                       # number of cc regfile reads
system.switch_cpus.cc_regfile_writes           482268                       # number of cc regfile writes
system.switch_cpus.committedInsts             1000001                       # Number of Instructions Simulated
system.switch_cpus.committedOps               1140517                       # Number of Ops (including micro ops) Simulated
system.switch_cpus.cpi                       0.722645                       # CPI: Cycles Per Instruction
system.switch_cpus.cpi_total                 0.722645                       # CPI: Total CPI of All Threads
system.switch_cpus.idleCycles                    8955                       # Total number of cycles that the CPU has spent unscheduled due to idling
system.switch_cpus.iew.branchMispredicts        18896                       # Number of branch mispredicts detected at execute
system.switch_cpus.iew.exec_branches           260903                       # Number of branches executed
system.switch_cpus.iew.exec_nop                  2901                       # number of nop insts executed
system.switch_cpus.iew.exec_rate             2.040821                       # Inst execution rate
system.switch_cpus.iew.exec_refs               525121                       # number of memory reference insts executed
system.switch_cpus.iew.exec_stores             202820                       # Number of stores executed
system.switch_cpus.iew.exec_swp                     0                       # number of swp insts executed
system.switch_cpus.iew.iewBlockCycles           55934                       # Number of cycles IEW is blocking
system.switch_cpus.iew.iewDispLoadInsts        388133                       # Number of dispatched load instructions
system.switch_cpus.iew.iewDispNonSpecInsts            4                       # Number of dispatched non-speculative instructions
system.switch_cpus.iew.iewDispSquashedInsts         1731                       # Number of squashed instructions skipped by dispatch
system.switch_cpus.iew.iewDispStoreInsts       241115                       # Number of dispatched store instructions
system.switch_cpus.iew.iewDispatchedInsts      1631128                       # Number of instructions dispatched to IQ
system.switch_cpus.iew.iewExecLoadInsts        322301                       # Number of load instructions executed
system.switch_cpus.iew.iewExecSquashedInsts        24418                       # Number of squashed instructions skipped in execute
system.switch_cpus.iew.iewExecutedInsts       1474791                       # Number of executed instructions
system.switch_cpus.iew.iewIQFullEvents             10                       # Number of times the IQ has become full, causing a stall
system.switch_cpus.iew.iewIdleCycles                0                       # Number of cycles IEW is idle
system.switch_cpus.iew.iewLSQFullEvents         11223                       # Number of times the LSQ has become full, causing a stall
system.switch_cpus.iew.iewSquashCycles          18638                       # Number of cycles IEW is squashing
system.switch_cpus.iew.iewUnblockCycles         11227                       # Number of cycles IEW is unblocking
system.switch_cpus.iew.memOrderViolationEvents           75                       # Number of memory order violations
system.switch_cpus.iew.predictedNotTakenIncorrect        10472                       # Number of branches that were predicted not taken incorrectly
system.switch_cpus.iew.predictedTakenIncorrect         8424                       # Number of branches that were predicted taken incorrectly
system.switch_cpus.iew.wb_consumers           1165900                       # num instructions consuming a value
system.switch_cpus.iew.wb_count               1458538                       # cumulative count of insts written-back
system.switch_cpus.iew.wb_fanout             0.598049                       # average fanout of values written-back
system.switch_cpus.iew.wb_producers            697265                       # num instructions producing a value
system.switch_cpus.iew.wb_rate               2.018330                       # insts written-back per cycle
system.switch_cpus.iew.wb_sent                1468917                       # cumulative count of insts sent to commit
system.switch_cpus.int_regfile_reads          1647121                       # number of integer regfile reads
system.switch_cpus.int_regfile_writes         1048730                       # number of integer regfile writes
system.switch_cpus.ipc                       1.383805                       # IPC: Instructions Per Cycle
system.switch_cpus.ipc_total                 1.383805                       # IPC: Total IPC of All Threads
system.switch_cpus.iq.FU_type_0::No_OpClass           27      0.00%      0.00% # Type of FU issued
system.switch_cpus.iq.FU_type_0::IntAlu        951235     63.45%     63.45% # Type of FU issued
system.switch_cpus.iq.FU_type_0::IntMult         8091      0.54%     63.99% # Type of FU issued
system.switch_cpus.iq.FU_type_0::IntDiv             3      0.00%     63.99% # Type of FU issued
system.switch_cpus.iq.FU_type_0::FloatAdd            0      0.00%     63.99% # Type of FU issued
system.switch_cpus.iq.FU_type_0::FloatCmp            0      0.00%     63.99% # Type of FU issued
system.switch_cpus.iq.FU_type_0::FloatCvt            0      0.00%     63.99% # Type of FU issued
system.switch_cpus.iq.FU_type_0::FloatMult            0      0.00%     63.99% # Type of FU issued
system.switch_cpus.iq.FU_type_0::FloatMultAcc            0      0.00%     63.99% # Type of FU issued
system.switch_cpus.iq.FU_type_0::FloatDiv            0      0.00%     63.99% # Type of FU issued
system.switch_cpus.iq.FU_type_0::FloatMisc            0      0.00%     63.99% # Type of FU issued
system.switch_cpus.iq.FU_type_0::FloatSqrt            0      0.00%     63.99% # Type of FU issued
system.switch_cpus.iq.FU_type_0::SimdAdd            0      0.00%     63.99% # Type of FU issued
system.switch_cpus.iq.FU_type_0::SimdAddAcc            0      0.00%     63.99% # Type of FU issued
system.switch_cpus.iq.FU_type_0::SimdAlu            0      0.00%     63.99% # Type of FU issued
system.switch_cpus.iq.FU_type_0::SimdCmp            0      0.00%     63.99% # Type of FU issued
system.switch_cpus.iq.FU_type_0::SimdCvt            0      0.00%     63.99% # Type of FU issued
system.switch_cpus.iq.FU_type_0::SimdMisc            0      0.00%     63.99% # Type of FU issued
system.switch_cpus.iq.FU_type_0::SimdMult            0      0.00%     63.99% # Type of FU issued
system.switch_cpus.iq.FU_type_0::SimdMultAcc            0      0.00%     63.99% # Type of FU issued
system.switch_cpus.iq.FU_type_0::SimdShift            0      0.00%     63.99% # Type of FU issued
system.switch_cpus.iq.FU_type_0::SimdShiftAcc            0      0.00%     63.99% # Type of FU issued
system.switch_cpus.iq.FU_type_0::SimdDiv            0      0.00%     63.99% # Type of FU issued
system.switch_cpus.iq.FU_type_0::SimdSqrt            0      0.00%     63.99% # Type of FU issued
system.switch_cpus.iq.FU_type_0::SimdFloatAdd            0      0.00%     63.99% # Type of FU issued
system.switch_cpus.iq.FU_type_0::SimdFloatAlu            0      0.00%     63.99% # Type of FU issued
system.switch_cpus.iq.FU_type_0::SimdFloatCmp            0      0.00%     63.99% # Type of FU issued
system.switch_cpus.iq.FU_type_0::SimdFloatCvt            0      0.00%     63.99% # Type of FU issued
system.switch_cpus.iq.FU_type_0::SimdFloatDiv            0      0.00%     63.99% # Type of FU issued
system.switch_cpus.iq.FU_type_0::SimdFloatMisc            0      0.00%     63.99% # Type of FU issued
system.switch_cpus.iq.FU_type_0::SimdFloatMult            0      0.00%     63.99% # Type of FU issued
system.switch_cpus.iq.FU_type_0::SimdFloatMultAcc            0      0.00%     63.99% # Type of FU issued
system.switch_cpus.iq.FU_type_0::SimdFloatSqrt            0      0.00%     63.99% # Type of FU issued
system.switch_cpus.iq.FU_type_0::SimdReduceAdd            0      0.00%     63.99% # Type of FU issued
system.switch_cpus.iq.FU_type_0::SimdReduceAlu            0      0.00%     63.99% # Type of FU issued
system.switch_cpus.iq.FU_type_0::SimdReduceCmp            0      0.00%     63.99% # Type of FU issued
system.switch_cpus.iq.FU_type_0::SimdFloatReduceAdd            0      0.00%     63.99% # Type of FU issued
system.switch_cpus.iq.FU_type_0::SimdFloatReduceCmp            0      0.00%     63.99% # Type of FU issued
system.switch_cpus.iq.FU_type_0::SimdAes            0      0.00%     63.99% # Type of FU issued
system.switch_cpus.iq.FU_type_0::SimdAesMix            0      0.00%     63.99% # Type of FU issued
system.switch_cpus.iq.FU_type_0::SimdSha1Hash            0      0.00%     63.99% # Type of FU issued
system.switch_cpus.iq.FU_type_0::SimdSha1Hash2            0      0.00%     63.99% # Type of FU issued
system.switch_cpus.iq.FU_type_0::SimdSha256Hash            0      0.00%     63.99% # Type of FU issued
system.switch_cpus.iq.FU_type_0::SimdSha256Hash2            0      0.00%     63.99% # Type of FU issued
system.switch_cpus.iq.FU_type_0::SimdShaSigma2            0      0.00%     63.99% # Type of FU issued
system.switch_cpus.iq.FU_type_0::SimdShaSigma3            0      0.00%     63.99% # Type of FU issued
system.switch_cpus.iq.FU_type_0::SimdPredAlu            0      0.00%     63.99% # Type of FU issued
system.switch_cpus.iq.FU_type_0::MemRead       329594     21.98%     85.98% # Type of FU issued
system.switch_cpus.iq.FU_type_0::MemWrite       210264     14.02%    100.00% # Type of FU issued
system.switch_cpus.iq.FU_type_0::FloatMemRead            0      0.00%    100.00% # Type of FU issued
system.switch_cpus.iq.FU_type_0::FloatMemWrite            0      0.00%    100.00% # Type of FU issued
system.switch_cpus.iq.FU_type_0::IprAccess            0      0.00%    100.00% # Type of FU issued
system.switch_cpus.iq.FU_type_0::InstPrefetch            0      0.00%    100.00% # Type of FU issued
system.switch_cpus.iq.FU_type_0::total        1499214                       # Type of FU issued
system.switch_cpus.iq.fp_alu_accesses               0                       # Number of floating point alu accesses
system.switch_cpus.iq.fp_inst_queue_reads            0                       # Number of floating instruction queue reads
system.switch_cpus.iq.fp_inst_queue_wakeup_accesses            0                       # Number of floating instruction queue wakeup accesses
system.switch_cpus.iq.fp_inst_queue_writes            0                       # Number of floating instruction queue writes
system.switch_cpus.iq.fu_busy_cnt               20124                       # FU busy when requested
system.switch_cpus.iq.fu_busy_rate           0.013423                       # FU busy rate (busy events/executed inst)
system.switch_cpus.iq.fu_full::No_OpClass            0      0.00%      0.00% # attempts to use FU when none available
system.switch_cpus.iq.fu_full::IntAlu            5621     27.93%     27.93% # attempts to use FU when none available
system.switch_cpus.iq.fu_full::IntMult              0      0.00%     27.93% # attempts to use FU when none available
system.switch_cpus.iq.fu_full::IntDiv               0      0.00%     27.93% # attempts to use FU when none available
system.switch_cpus.iq.fu_full::FloatAdd             0      0.00%     27.93% # attempts to use FU when none available
system.switch_cpus.iq.fu_full::FloatCmp             0      0.00%     27.93% # attempts to use FU when none available
system.switch_cpus.iq.fu_full::FloatCvt             0      0.00%     27.93% # attempts to use FU when none available
system.switch_cpus.iq.fu_full::FloatMult            0      0.00%     27.93% # attempts to use FU when none available
system.switch_cpus.iq.fu_full::FloatMultAcc            0      0.00%     27.93% # attempts to use FU when none available
system.switch_cpus.iq.fu_full::FloatDiv             0      0.00%     27.93% # attempts to use FU when none available
system.switch_cpus.iq.fu_full::FloatMisc            0      0.00%     27.93% # attempts to use FU when none available
system.switch_cpus.iq.fu_full::FloatSqrt            0      0.00%     27.93% # attempts to use FU when none available
system.switch_cpus.iq.fu_full::SimdAdd              0      0.00%     27.93% # attempts to use FU when none available
system.switch_cpus.iq.fu_full::SimdAddAcc            0      0.00%     27.93% # attempts to use FU when none available
system.switch_cpus.iq.fu_full::SimdAlu              0      0.00%     27.93% # attempts to use FU when none available
system.switch_cpus.iq.fu_full::SimdCmp              0      0.00%     27.93% # attempts to use FU when none available
system.switch_cpus.iq.fu_full::SimdCvt              0      0.00%     27.93% # attempts to use FU when none available
system.switch_cpus.iq.fu_full::SimdMisc             0      0.00%     27.93% # attempts to use FU when none available
system.switch_cpus.iq.fu_full::SimdMult             0      0.00%     27.93% # attempts to use FU when none available
system.switch_cpus.iq.fu_full::SimdMultAcc            0      0.00%     27.93% # attempts to use FU when none available
system.switch_cpus.iq.fu_full::SimdShift            0      0.00%     27.93% # attempts to use FU when none available
system.switch_cpus.iq.fu_full::SimdShiftAcc            0      0.00%     27.93% # attempts to use FU when none available
system.switch_cpus.iq.fu_full::SimdDiv              0      0.00%     27.93% # attempts to use FU when none available
system.switch_cpus.iq.fu_full::SimdSqrt             0      0.00%     27.93% # attempts to use FU when none available
system.switch_cpus.iq.fu_full::SimdFloatAdd            0      0.00%     27.93% # attempts to use FU when none available
system.switch_cpus.iq.fu_full::SimdFloatAlu            0      0.00%     27.93% # attempts to use FU when none available
system.switch_cpus.iq.fu_full::SimdFloatCmp            0      0.00%     27.93% # attempts to use FU when none available
system.switch_cpus.iq.fu_full::SimdFloatCvt            0      0.00%     27.93% # attempts to use FU when none available
system.switch_cpus.iq.fu_full::SimdFloatDiv            0      0.00%     27.93% # attempts to use FU when none available
system.switch_cpus.iq.fu_full::SimdFloatMisc            0      0.00%     27.93% # attempts to use FU when none available
system.switch_cpus.iq.fu_full::SimdFloatMult            0      0.00%     27.93% # attempts to use FU when none available
system.switch_cpus.iq.fu_full::SimdFloatMultAcc            0      0.00%     27.93% # attempts to use FU when none available
system.switch_cpus.iq.fu_full::SimdFloatSqrt            0      0.00%     27.93% # attempts to use FU when none available
system.switch_cpus.iq.fu_full::SimdReduceAdd            0      0.00%     27.93% # attempts to use FU when none available
system.switch_cpus.iq.fu_full::SimdReduceAlu            0      0.00%     27.93% # attempts to use FU when none available
system.switch_cpus.iq.fu_full::SimdReduceCmp            0      0.00%     27.93% # attempts to use FU when none available
system.switch_cpus.iq.fu_full::SimdFloatReduceAdd            0      0.00%     27.93% # attempts to use FU when none available
system.switch_cpus.iq.fu_full::SimdFloatReduceCmp            0      0.00%     27.93% # attempts to use FU when none available
system.switch_cpus.iq.fu_full::SimdAes              0      0.00%     27.93% # attempts to use FU when none available
system.switch_cpus.iq.fu_full::SimdAesMix            0      0.00%     27.93% # attempts to use FU when none available
system.switch_cpus.iq.fu_full::SimdSha1Hash            0      0.00%     27.93% # attempts to use FU when none available
system.switch_cpus.iq.fu_full::SimdSha1Hash2            0      0.00%     27.93% # attempts to use FU when none available
system.switch_cpus.iq.fu_full::SimdSha256Hash            0      0.00%     27.93% # attempts to use FU when none available
system.switch_cpus.iq.fu_full::SimdSha256Hash2            0      0.00%     27.93% # attempts to use FU when none available
system.switch_cpus.iq.fu_full::SimdShaSigma2            0      0.00%     27.93% # attempts to use FU when none available
system.switch_cpus.iq.fu_full::SimdShaSigma3            0      0.00%     27.93% # attempts to use FU when none available
system.switch_cpus.iq.fu_full::SimdPredAlu            0      0.00%     27.93% # attempts to use FU when none available
system.switch_cpus.iq.fu_full::MemRead           4611     22.91%     50.84% # attempts to use FU when none available
system.switch_cpus.iq.fu_full::MemWrite          9892     49.16%    100.00% # attempts to use FU when none available
system.switch_cpus.iq.fu_full::FloatMemRead            0      0.00%    100.00% # attempts to use FU when none available
system.switch_cpus.iq.fu_full::FloatMemWrite            0      0.00%    100.00% # attempts to use FU when none available
system.switch_cpus.iq.fu_full::IprAccess            0      0.00%    100.00% # attempts to use FU when none available
system.switch_cpus.iq.fu_full::InstPrefetch            0      0.00%    100.00% # attempts to use FU when none available
system.switch_cpus.iq.int_alu_accesses        1519311                       # Number of integer alu accesses
system.switch_cpus.iq.int_inst_queue_reads      3733501                       # Number of integer instruction queue reads
system.switch_cpus.iq.int_inst_queue_wakeup_accesses      1458538                       # Number of integer instruction queue wakeup accesses
system.switch_cpus.iq.int_inst_queue_writes      2115978                       # Number of integer instruction queue writes
system.switch_cpus.iq.iqInstsAdded            1628223                       # Number of instructions added to the IQ (excludes non-spec)
system.switch_cpus.iq.iqInstsIssued           1499214                       # Number of instructions issued
system.switch_cpus.iq.iqNonSpecInstsAdded            4                       # Number of non-speculative instructions added to the IQ
system.switch_cpus.iq.iqSquashedInstsExamined       487687                       # Number of squashed instructions iterated over during squash; mainly for profiling
system.switch_cpus.iq.iqSquashedInstsIssued         1263                       # Number of squashed instructions issued
system.switch_cpus.iq.iqSquashedNonSpecRemoved            4                       # Number of squashed non-spec instructions that were removed
system.switch_cpus.iq.iqSquashedOperandsExamined       245119                       # Number of squashed operands that are examined and possibly removed from graph
system.switch_cpus.iq.issued_per_cycle::samples       713691                       # Number of insts issued each cycle
system.switch_cpus.iq.issued_per_cycle::mean     2.100649                       # Number of insts issued each cycle
system.switch_cpus.iq.issued_per_cycle::stdev     2.230818                       # Number of insts issued each cycle
system.switch_cpus.iq.issued_per_cycle::underflows            0      0.00%      0.00% # Number of insts issued each cycle
system.switch_cpus.iq.issued_per_cycle::0       272685     38.21%     38.21% # Number of insts issued each cycle
system.switch_cpus.iq.issued_per_cycle::1        98255     13.77%     51.97% # Number of insts issued each cycle
system.switch_cpus.iq.issued_per_cycle::2        76915     10.78%     62.75% # Number of insts issued each cycle
system.switch_cpus.iq.issued_per_cycle::3        52218      7.32%     70.07% # Number of insts issued each cycle
system.switch_cpus.iq.issued_per_cycle::4        79199     11.10%     81.17% # Number of insts issued each cycle
system.switch_cpus.iq.issued_per_cycle::5        65255      9.14%     90.31% # Number of insts issued each cycle
system.switch_cpus.iq.issued_per_cycle::6        44362      6.22%     96.52% # Number of insts issued each cycle
system.switch_cpus.iq.issued_per_cycle::7        17184      2.41%     98.93% # Number of insts issued each cycle
system.switch_cpus.iq.issued_per_cycle::8         7618      1.07%    100.00% # Number of insts issued each cycle
system.switch_cpus.iq.issued_per_cycle::overflows            0      0.00%    100.00% # Number of insts issued each cycle
system.switch_cpus.iq.issued_per_cycle::min_value            0                       # Number of insts issued each cycle
system.switch_cpus.iq.issued_per_cycle::max_value            8                       # Number of insts issued each cycle
system.switch_cpus.iq.issued_per_cycle::total       713691                       # Number of insts issued each cycle
system.switch_cpus.iq.rate                   2.074617                       # Inst issue rate
system.switch_cpus.iq.vec_alu_accesses              0                       # Number of vector alu accesses
system.switch_cpus.iq.vec_inst_queue_reads            0                       # Number of vector instruction queue reads
system.switch_cpus.iq.vec_inst_queue_wakeup_accesses            0                       # Number of vector instruction queue wakeup accesses
system.switch_cpus.iq.vec_inst_queue_writes            0                       # Number of vector instruction queue writes
system.switch_cpus.memDep0.conflictingLoads       167414                       # Number of conflicting loads.
system.switch_cpus.memDep0.conflictingStores        73542                       # Number of conflicting stores.
system.switch_cpus.memDep0.insertedLoads       388133                       # Number of loads inserted to the mem dependence unit.
system.switch_cpus.memDep0.insertedStores       241115                       # Number of stores inserted to the mem dependence unit.
system.switch_cpus.misc_regfile_reads         3106997                       # number of misc regfile reads
system.switch_cpus.misc_regfile_writes              1                       # number of misc regfile writes
system.switch_cpus.numCycles                   722646                       # number of cpu cycles simulated
system.switch_cpus.numWorkItemsCompleted            0                       # number of work items this cpu completed
system.switch_cpus.numWorkItemsStarted              0                       # number of work items this cpu started
system.switch_cpus.timesIdled                      55                       # Number of times that the entire CPU went into an idle state and unscheduled itself
system.switch_cpus.vec_regfile_writes              44                       # number of vector regfile writes
system.tol2bus.snoop_filter.hit_multi_requests            0                       # Number of requests hitting in the snoop filter with multiple (>1) holders of the requested data.
system.tol2bus.snoop_filter.hit_multi_snoops            0                       # Number of snoops hitting in the snoop filter with multiple (>1) holders of the requested data.
system.tol2bus.snoop_filter.hit_single_requests          118                       # Number of requests hitting in the snoop filter with a single holder of the requested data.
system.tol2bus.snoop_filter.hit_single_snoops            0                       # Number of snoops hitting in the snoop filter with a single holder of the requested data.
system.tol2bus.snoop_filter.tot_requests          562                       # Total number of requests made to the snoop filter.
system.tol2bus.snoop_filter.tot_snoops              0                       # Total number of snoops made to the snoop filter.
system.clk_domain.clock                          1000                       # Clock period in ticks
system.cpu.dcache.demand_hits::.cpu.data            6                       # number of demand (read+write) hits
system.cpu.dcache.demand_hits::.switch_cpus.data       366658                       # number of demand (read+write) hits
system.cpu.dcache.demand_hits::total           366664                       # number of demand (read+write) hits
system.cpu.dcache.overall_hits::.cpu.data            6                       # number of overall hits
system.cpu.dcache.overall_hits::.switch_cpus.data       366658                       # number of overall hits
system.cpu.dcache.overall_hits::total          366664                       # number of overall hits
system.cpu.dcache.demand_misses::.cpu.data            5                       # number of demand (read+write) misses
system.cpu.dcache.demand_misses::.switch_cpus.data         1648                       # number of demand (read+write) misses
system.cpu.dcache.demand_misses::total           1653                       # number of demand (read+write) misses
system.cpu.dcache.overall_misses::.cpu.data            5                       # number of overall misses
system.cpu.dcache.overall_misses::.switch_cpus.data         1648                       # number of overall misses
system.cpu.dcache.overall_misses::total          1653                       # number of overall misses
system.cpu.dcache.demand_miss_latency::.switch_cpus.data     93813412                       # number of demand (read+write) miss cycles
system.cpu.dcache.demand_miss_latency::total     93813412                       # number of demand (read+write) miss cycles
system.cpu.dcache.overall_miss_latency::.switch_cpus.data     93813412                       # number of overall miss cycles
system.cpu.dcache.overall_miss_latency::total     93813412                       # number of overall miss cycles
system.cpu.dcache.demand_accesses::.cpu.data           11                       # number of demand (read+write) accesses
system.cpu.dcache.demand_accesses::.switch_cpus.data       368306                       # number of demand (read+write) accesses
system.cpu.dcache.demand_accesses::total       368317                       # number of demand (read+write) accesses
system.cpu.dcache.overall_accesses::.cpu.data           11                       # number of overall (read+write) accesses
system.cpu.dcache.overall_accesses::.switch_cpus.data       368306                       # number of overall (read+write) accesses
system.cpu.dcache.overall_accesses::total       368317                       # number of overall (read+write) accesses
system.cpu.dcache.demand_miss_rate::.cpu.data     0.454545                       # miss rate for demand accesses
system.cpu.dcache.demand_miss_rate::.switch_cpus.data     0.004475                       # miss rate for demand accesses
system.cpu.dcache.demand_miss_rate::total     0.004488                       # miss rate for demand accesses
system.cpu.dcache.overall_miss_rate::.cpu.data     0.454545                       # miss rate for overall accesses
system.cpu.dcache.overall_miss_rate::.switch_cpus.data     0.004475                       # miss rate for overall accesses
system.cpu.dcache.overall_miss_rate::total     0.004488                       # miss rate for overall accesses
system.cpu.dcache.demand_avg_miss_latency::.switch_cpus.data 56925.614078                       # average overall miss latency
system.cpu.dcache.demand_avg_miss_latency::total 56753.425287                       # average overall miss latency
system.cpu.dcache.overall_avg_miss_latency::.switch_cpus.data 56925.614078                       # average overall miss latency
system.cpu.dcache.overall_avg_miss_latency::total 56753.425287                       # average overall miss latency
system.cpu.dcache.blocked_cycles::no_mshrs            0                       # number of cycles access was blocked
system.cpu.dcache.blocked_cycles::no_targets          333                       # number of cycles access was blocked
system.cpu.dcache.blocked::no_mshrs                 0                       # number of cycles access was blocked
system.cpu.dcache.blocked::no_targets               2                       # number of cycles access was blocked
system.cpu.dcache.avg_blocked_cycles::no_mshrs          nan                       # average number of cycles each access was blocked
system.cpu.dcache.avg_blocked_cycles::no_targets   166.500000                       # average number of cycles each access was blocked
system.cpu.dcache.writebacks::.writebacks          108                       # number of writebacks
system.cpu.dcache.writebacks::total               108                       # number of writebacks
system.cpu.dcache.demand_mshr_hits::.switch_cpus.data         1279                       # number of demand (read+write) MSHR hits
system.cpu.dcache.demand_mshr_hits::total         1279                       # number of demand (read+write) MSHR hits
system.cpu.dcache.overall_mshr_hits::.switch_cpus.data         1279                       # number of overall MSHR hits
system.cpu.dcache.overall_mshr_hits::total         1279                       # number of overall MSHR hits
system.cpu.dcache.demand_mshr_misses::.switch_cpus.data          369                       # number of demand (read+write) MSHR misses
system.cpu.dcache.demand_mshr_misses::total          369                       # number of demand (read+write) MSHR misses
system.cpu.dcache.overall_mshr_misses::.switch_cpus.data          369                       # number of overall MSHR misses
system.cpu.dcache.overall_mshr_misses::total          369                       # number of overall MSHR misses
system.cpu.dcache.demand_mshr_miss_latency::.switch_cpus.data     24159108                       # number of demand (read+write) MSHR miss cycles
system.cpu.dcache.demand_mshr_miss_latency::total     24159108                       # number of demand (read+write) MSHR miss cycles
system.cpu.dcache.overall_mshr_miss_latency::.switch_cpus.data     24159108                       # number of overall MSHR miss cycles
system.cpu.dcache.overall_mshr_miss_latency::total     24159108                       # number of overall MSHR miss cycles
system.cpu.dcache.demand_mshr_miss_rate::.switch_cpus.data     0.001002                       # mshr miss rate for demand accesses
system.cpu.dcache.demand_mshr_miss_rate::total     0.001002                       # mshr miss rate for demand accesses
system.cpu.dcache.overall_mshr_miss_rate::.switch_cpus.data     0.001002                       # mshr miss rate for overall accesses
system.cpu.dcache.overall_mshr_miss_rate::total     0.001002                       # mshr miss rate for overall accesses
system.cpu.dcache.demand_avg_mshr_miss_latency::.switch_cpus.data 65471.837398                       # average overall mshr miss latency
system.cpu.dcache.demand_avg_mshr_miss_latency::total 65471.837398                       # average overall mshr miss latency
system.cpu.dcache.overall_avg_mshr_miss_latency::.switch_cpus.data 65471.837398                       # average overall mshr miss latency
system.cpu.dcache.overall_avg_mshr_miss_latency::total 65471.837398                       # average overall mshr miss latency
system.cpu.dcache.replacements                    118                       # number of replacements
system.cpu.dcache.ReadReq_hits::.cpu.data            5                       # number of ReadReq hits
system.cpu.dcache.ReadReq_hits::.switch_cpus.data       191821                       # number of ReadReq hits
system.cpu.dcache.ReadReq_hits::total          191826                       # number of ReadReq hits
system.cpu.dcache.ReadReq_misses::.cpu.data            5                       # number of ReadReq misses
system.cpu.dcache.ReadReq_misses::.switch_cpus.data          781                       # number of ReadReq misses
system.cpu.dcache.ReadReq_misses::total           786                       # number of ReadReq misses
system.cpu.dcache.ReadReq_miss_latency::.switch_cpus.data     50767202                       # number of ReadReq miss cycles
system.cpu.dcache.ReadReq_miss_latency::total     50767202                       # number of ReadReq miss cycles
system.cpu.dcache.ReadReq_accesses::.cpu.data           10                       # number of ReadReq accesses(hits+misses)
system.cpu.dcache.ReadReq_accesses::.switch_cpus.data       192602                       # number of ReadReq accesses(hits+misses)
system.cpu.dcache.ReadReq_accesses::total       192612                       # number of ReadReq accesses(hits+misses)
system.cpu.dcache.ReadReq_miss_rate::.cpu.data     0.500000                       # miss rate for ReadReq accesses
system.cpu.dcache.ReadReq_miss_rate::.switch_cpus.data     0.004055                       # miss rate for ReadReq accesses
system.cpu.dcache.ReadReq_miss_rate::total     0.004081                       # miss rate for ReadReq accesses
system.cpu.dcache.ReadReq_avg_miss_latency::.switch_cpus.data 65002.819462                       # average ReadReq miss latency
system.cpu.dcache.ReadReq_avg_miss_latency::total 64589.315522                       # average ReadReq miss latency
system.cpu.dcache.ReadReq_mshr_hits::.switch_cpus.data          548                       # number of ReadReq MSHR hits
system.cpu.dcache.ReadReq_mshr_hits::total          548                       # number of ReadReq MSHR hits
system.cpu.dcache.ReadReq_mshr_misses::.switch_cpus.data          233                       # number of ReadReq MSHR misses
system.cpu.dcache.ReadReq_mshr_misses::total          233                       # number of ReadReq MSHR misses
system.cpu.dcache.ReadReq_mshr_miss_latency::.switch_cpus.data     15679389                       # number of ReadReq MSHR miss cycles
system.cpu.dcache.ReadReq_mshr_miss_latency::total     15679389                       # number of ReadReq MSHR miss cycles
system.cpu.dcache.ReadReq_mshr_miss_rate::.switch_cpus.data     0.001210                       # mshr miss rate for ReadReq accesses
system.cpu.dcache.ReadReq_mshr_miss_rate::total     0.001210                       # mshr miss rate for ReadReq accesses
system.cpu.dcache.ReadReq_avg_mshr_miss_latency::.switch_cpus.data 67293.515021                       # average ReadReq mshr miss latency
system.cpu.dcache.ReadReq_avg_mshr_miss_latency::total 67293.515021                       # average ReadReq mshr miss latency
system.cpu.dcache.WriteReq_hits::.cpu.data            1                       # number of WriteReq hits
system.cpu.dcache.WriteReq_hits::.switch_cpus.data       174837                       # number of WriteReq hits
system.cpu.dcache.WriteReq_hits::total         174838                       # number of WriteReq hits
system.cpu.dcache.WriteReq_misses::.switch_cpus.data          867                       # number of WriteReq misses
system.cpu.dcache.WriteReq_misses::total          867                       # number of WriteReq misses
system.cpu.dcache.WriteReq_miss_latency::.switch_cpus.data     43046210                       # number of WriteReq miss cycles
system.cpu.dcache.WriteReq_miss_latency::total     43046210                       # number of WriteReq miss cycles
system.cpu.dcache.WriteReq_accesses::.cpu.data            1                       # number of WriteReq accesses(hits+misses)
system.cpu.dcache.WriteReq_accesses::.switch_cpus.data       175704                       # number of WriteReq accesses(hits+misses)
system.cpu.dcache.WriteReq_accesses::total       175705                       # number of WriteReq accesses(hits+misses)
system.cpu.dcache.WriteReq_miss_rate::.switch_cpus.data     0.004934                       # miss rate for WriteReq accesses
system.cpu.dcache.WriteReq_miss_rate::total     0.004934                       # miss rate for WriteReq accesses
system.cpu.dcache.WriteReq_avg_miss_latency::.switch_cpus.data 49649.607843                       # average WriteReq miss latency
system.cpu.dcache.WriteReq_avg_miss_latency::total 49649.607843                       # average WriteReq miss latency
system.cpu.dcache.WriteReq_mshr_hits::.switch_cpus.data          731                       # number of WriteReq MSHR hits
system.cpu.dcache.WriteReq_mshr_hits::total          731                       # number of WriteReq MSHR hits
system.cpu.dcache.WriteReq_mshr_misses::.switch_cpus.data          136                       # number of WriteReq MSHR misses
system.cpu.dcache.WriteReq_mshr_misses::total          136                       # number of WriteReq MSHR misses
system.cpu.dcache.WriteReq_mshr_miss_latency::.switch_cpus.data      8479719                       # number of WriteReq MSHR miss cycles
system.cpu.dcache.WriteReq_mshr_miss_latency::total      8479719                       # number of WriteReq MSHR miss cycles
system.cpu.dcache.WriteReq_mshr_miss_rate::.switch_cpus.data     0.000774                       # mshr miss rate for WriteReq accesses
system.cpu.dcache.WriteReq_mshr_miss_rate::total     0.000774                       # mshr miss rate for WriteReq accesses
system.cpu.dcache.WriteReq_avg_mshr_miss_latency::.switch_cpus.data 62350.875000                       # average WriteReq mshr miss latency
system.cpu.dcache.WriteReq_avg_mshr_miss_latency::total 62350.875000                       # average WriteReq mshr miss latency
system.cpu.dcache.power_state.pwrStateResidencyTicks::UNDEFINED 264202995067                       # Cumulative time (in ticks) in various power states
system.cpu.dcache.tags.tagsinuse           185.408095                       # Cycle average of tags in use
system.cpu.dcache.tags.total_refs              141320                       # Total number of references to valid blocks.
system.cpu.dcache.tags.sampled_refs               118                       # Sample count of references to valid blocks.
system.cpu.dcache.tags.avg_refs           1197.627119                       # Average number of references to valid blocks.
system.cpu.dcache.tags.warmup_cycle      263969572011                       # Cycle when the warmup percentage was hit.
system.cpu.dcache.tags.occ_blocks::.cpu.data     3.912992                       # Average occupied blocks per requestor
system.cpu.dcache.tags.occ_blocks::.switch_cpus.data   181.495103                       # Average occupied blocks per requestor
system.cpu.dcache.tags.occ_percent::.cpu.data     0.015285                       # Average percentage of cache occupancy
system.cpu.dcache.tags.occ_percent::.switch_cpus.data     0.708965                       # Average percentage of cache occupancy
system.cpu.dcache.tags.occ_percent::total     0.724250                       # Average percentage of cache occupancy
system.cpu.dcache.tags.occ_task_id_blocks::1024          256                       # Occupied blocks per task id
system.cpu.dcache.tags.age_task_id_blocks_1024::0           25                       # Occupied blocks per task id
system.cpu.dcache.tags.age_task_id_blocks_1024::1          110                       # Occupied blocks per task id
system.cpu.dcache.tags.age_task_id_blocks_1024::2          121                       # Occupied blocks per task id
system.cpu.dcache.tags.occ_task_id_percent::1024            1                       # Percentage of cache occupancy per task id
system.cpu.dcache.tags.tag_accesses           2946910                       # Number of tag accesses
system.cpu.dcache.tags.data_accesses          2946910                       # Number of data accesses
system.cpu.dcache.tags.power_state.pwrStateResidencyTicks::UNDEFINED 264202995067                       # Cumulative time (in ticks) in various power states
system.cpu.dtb.instHits                             0                       # ITB inst hits
system.cpu.dtb.instMisses                           0                       # ITB inst misses
system.cpu.dtb.readHits                             0                       # DTB read hits
system.cpu.dtb.readMisses                           0                       # DTB read misses
system.cpu.dtb.writeHits                            0                       # DTB write hits
system.cpu.dtb.writeMisses                          0                       # DTB write misses
system.cpu.dtb.inserts                              0                       # Number of times an entry is inserted into the TLB
system.cpu.dtb.flushTlb                             2                       # Number of times complete TLB was flushed
system.cpu.dtb.flushTlbMva                          0                       # Number of times TLB was flushed by MVA
system.cpu.dtb.flushTlbMvaAsid                      0                       # Number of times TLB was flushed by MVA & ASID
system.cpu.dtb.flushTlbAsid                         0                       # Number of times TLB was flushed by ASID
system.cpu.dtb.flushedEntries                       0                       # Number of entries that have been flushed from TLB
system.cpu.dtb.alignFaults                          0                       # Number of TLB faults due to alignment restrictions
system.cpu.dtb.prefetchFaults                       0                       # Number of TLB faults due to prefetch
system.cpu.dtb.domainFaults                         0                       # Number of TLB faults due to domain restrictions
system.cpu.dtb.permsFaults                          0                       # Number of TLB faults due to permissions restrictions
system.cpu.dtb.readAccesses                         0                       # DTB read accesses
system.cpu.dtb.writeAccesses                        0                       # DTB write accesses
system.cpu.dtb.instAccesses                         0                       # ITB inst accesses
system.cpu.dtb.hits                                 0                       # Total TLB (inst and data) hits
system.cpu.dtb.misses                               0                       # Total TLB (inst and data) misses
system.cpu.dtb.accesses                             0                       # Total TLB (inst and data) accesses
system.cpu.dtb.stage2_mmu.stage2_tlb.instHits            0                       # ITB inst hits
system.cpu.dtb.stage2_mmu.stage2_tlb.instMisses            0                       # ITB inst misses
system.cpu.dtb.stage2_mmu.stage2_tlb.readHits            0                       # DTB read hits
system.cpu.dtb.stage2_mmu.stage2_tlb.readMisses            0                       # DTB read misses
system.cpu.dtb.stage2_mmu.stage2_tlb.writeHits            0                       # DTB write hits
system.cpu.dtb.stage2_mmu.stage2_tlb.writeMisses            0                       # DTB write misses
system.cpu.dtb.stage2_mmu.stage2_tlb.inserts            0                       # Number of times an entry is inserted into the TLB
system.cpu.dtb.stage2_mmu.stage2_tlb.flushTlb            0                       # Number of times complete TLB was flushed
system.cpu.dtb.stage2_mmu.stage2_tlb.flushTlbMva            0                       # Number of times TLB was flushed by MVA
system.cpu.dtb.stage2_mmu.stage2_tlb.flushTlbMvaAsid            0                       # Number of times TLB was flushed by MVA & ASID
system.cpu.dtb.stage2_mmu.stage2_tlb.flushTlbAsid            0                       # Number of times TLB was flushed by ASID
system.cpu.dtb.stage2_mmu.stage2_tlb.flushedEntries            0                       # Number of entries that have been flushed from TLB
system.cpu.dtb.stage2_mmu.stage2_tlb.alignFaults            0                       # Number of TLB faults due to alignment restrictions
system.cpu.dtb.stage2_mmu.stage2_tlb.prefetchFaults            0                       # Number of TLB faults due to prefetch
system.cpu.dtb.stage2_mmu.stage2_tlb.domainFaults            0                       # Number of TLB faults due to domain restrictions
system.cpu.dtb.stage2_mmu.stage2_tlb.permsFaults            0                       # Number of TLB faults due to permissions restrictions
system.cpu.dtb.stage2_mmu.stage2_tlb.readAccesses            0                       # DTB read accesses
system.cpu.dtb.stage2_mmu.stage2_tlb.writeAccesses            0                       # DTB write accesses
system.cpu.dtb.stage2_mmu.stage2_tlb.instAccesses            0                       # ITB inst accesses
system.cpu.dtb.stage2_mmu.stage2_tlb.hits            0                       # Total TLB (inst and data) hits
system.cpu.dtb.stage2_mmu.stage2_tlb.misses            0                       # Total TLB (inst and data) misses
system.cpu.dtb.stage2_mmu.stage2_tlb.accesses            0                       # Total TLB (inst and data) accesses
system.cpu.dtb.stage2_mmu.stage2_tlb.walker.walks            0                       # Table walker walks requested
system.cpu.dtb.stage2_mmu.stage2_tlb.walker.requestOrigin_Requested::Data            0                       # Table walker requests started/completed, data/inst
system.cpu.dtb.stage2_mmu.stage2_tlb.walker.requestOrigin_Requested::Inst            0                       # Table walker requests started/completed, data/inst
system.cpu.dtb.stage2_mmu.stage2_tlb.walker.requestOrigin_Requested::total            0                       # Table walker requests started/completed, data/inst
system.cpu.dtb.stage2_mmu.stage2_tlb.walker.requestOrigin_Completed::Data            0                       # Table walker requests started/completed, data/inst
system.cpu.dtb.stage2_mmu.stage2_tlb.walker.requestOrigin_Completed::Inst            0                       # Table walker requests started/completed, data/inst
system.cpu.dtb.stage2_mmu.stage2_tlb.walker.requestOrigin_Completed::total            0                       # Table walker requests started/completed, data/inst
system.cpu.dtb.stage2_mmu.stage2_tlb.walker.requestOrigin::total            0                       # Table walker requests started/completed, data/inst
system.cpu.dtb.stage2_mmu.stage2_tlb.walker.power_state.pwrStateResidencyTicks::UNDEFINED 264202995067                       # Cumulative time (in ticks) in various power states
system.cpu.dtb.walker.walks                         0                       # Table walker walks requested
system.cpu.dtb.walker.requestOrigin_Requested::Data            0                       # Table walker requests started/completed, data/inst
system.cpu.dtb.walker.requestOrigin_Requested::Inst            0                       # Table walker requests started/completed, data/inst
system.cpu.dtb.walker.requestOrigin_Requested::total            0                       # Table walker requests started/completed, data/inst
system.cpu.dtb.walker.requestOrigin_Completed::Data            0                       # Table walker requests started/completed, data/inst
system.cpu.dtb.walker.requestOrigin_Completed::Inst            0                       # Table walker requests started/completed, data/inst
system.cpu.dtb.walker.requestOrigin_Completed::total            0                       # Table walker requests started/completed, data/inst
system.cpu.dtb.walker.requestOrigin::total            0                       # Table walker requests started/completed, data/inst
system.cpu.dtb.walker.power_state.pwrStateResidencyTicks::UNDEFINED 264202995067                       # Cumulative time (in ticks) in various power states
system.cpu.icache.demand_hits::.cpu.inst           26                       # number of demand (read+write) hits
system.cpu.icache.demand_hits::.switch_cpus.inst       264405                       # number of demand (read+write) hits
system.cpu.icache.demand_hits::total           264431                       # number of demand (read+write) hits
system.cpu.icache.overall_hits::.cpu.inst           26                       # number of overall hits
system.cpu.icache.overall_hits::.switch_cpus.inst       264405                       # number of overall hits
system.cpu.icache.overall_hits::total          264431                       # number of overall hits
system.cpu.icache.demand_misses::.cpu.inst            3                       # number of demand (read+write) misses
system.cpu.icache.demand_misses::.switch_cpus.inst           99                       # number of demand (read+write) misses
system.cpu.icache.demand_misses::total            102                       # number of demand (read+write) misses
system.cpu.icache.overall_misses::.cpu.inst            3                       # number of overall misses
system.cpu.icache.overall_misses::.switch_cpus.inst           99                       # number of overall misses
system.cpu.icache.overall_misses::total           102                       # number of overall misses
system.cpu.icache.demand_miss_latency::.switch_cpus.inst      6531383                       # number of demand (read+write) miss cycles
system.cpu.icache.demand_miss_latency::total      6531383                       # number of demand (read+write) miss cycles
system.cpu.icache.overall_miss_latency::.switch_cpus.inst      6531383                       # number of overall miss cycles
system.cpu.icache.overall_miss_latency::total      6531383                       # number of overall miss cycles
system.cpu.icache.demand_accesses::.cpu.inst           29                       # number of demand (read+write) accesses
system.cpu.icache.demand_accesses::.switch_cpus.inst       264504                       # number of demand (read+write) accesses
system.cpu.icache.demand_accesses::total       264533                       # number of demand (read+write) accesses
system.cpu.icache.overall_accesses::.cpu.inst           29                       # number of overall (read+write) accesses
system.cpu.icache.overall_accesses::.switch_cpus.inst       264504                       # number of overall (read+write) accesses
system.cpu.icache.overall_accesses::total       264533                       # number of overall (read+write) accesses
system.cpu.icache.demand_miss_rate::.cpu.inst     0.103448                       # miss rate for demand accesses
system.cpu.icache.demand_miss_rate::.switch_cpus.inst     0.000374                       # miss rate for demand accesses
system.cpu.icache.demand_miss_rate::total     0.000386                       # miss rate for demand accesses
system.cpu.icache.overall_miss_rate::.cpu.inst     0.103448                       # miss rate for overall accesses
system.cpu.icache.overall_miss_rate::.switch_cpus.inst     0.000374                       # miss rate for overall accesses
system.cpu.icache.overall_miss_rate::total     0.000386                       # miss rate for overall accesses
system.cpu.icache.demand_avg_miss_latency::.switch_cpus.inst 65973.565657                       # average overall miss latency
system.cpu.icache.demand_avg_miss_latency::total 64033.166667                       # average overall miss latency
system.cpu.icache.overall_avg_miss_latency::.switch_cpus.inst 65973.565657                       # average overall miss latency
system.cpu.icache.overall_avg_miss_latency::total 64033.166667                       # average overall miss latency
system.cpu.icache.blocked_cycles::no_mshrs          161                       # number of cycles access was blocked
system.cpu.icache.blocked_cycles::no_targets            0                       # number of cycles access was blocked
system.cpu.icache.blocked::no_mshrs                 1                       # number of cycles access was blocked
system.cpu.icache.blocked::no_targets               0                       # number of cycles access was blocked
system.cpu.icache.avg_blocked_cycles::no_mshrs          161                       # average number of cycles each access was blocked
system.cpu.icache.avg_blocked_cycles::no_targets          nan                       # average number of cycles each access was blocked
system.cpu.icache.demand_mshr_hits::.switch_cpus.inst           32                       # number of demand (read+write) MSHR hits
system.cpu.icache.demand_mshr_hits::total           32                       # number of demand (read+write) MSHR hits
system.cpu.icache.overall_mshr_hits::.switch_cpus.inst           32                       # number of overall MSHR hits
system.cpu.icache.overall_mshr_hits::total           32                       # number of overall MSHR hits
system.cpu.icache.demand_mshr_misses::.switch_cpus.inst           67                       # number of demand (read+write) MSHR misses
system.cpu.icache.demand_mshr_misses::total           67                       # number of demand (read+write) MSHR misses
system.cpu.icache.overall_mshr_misses::.switch_cpus.inst           67                       # number of overall MSHR misses
system.cpu.icache.overall_mshr_misses::total           67                       # number of overall MSHR misses
system.cpu.icache.demand_mshr_miss_latency::.switch_cpus.inst      4924781                       # number of demand (read+write) MSHR miss cycles
system.cpu.icache.demand_mshr_miss_latency::total      4924781                       # number of demand (read+write) MSHR miss cycles
system.cpu.icache.overall_mshr_miss_latency::.switch_cpus.inst      4924781                       # number of overall MSHR miss cycles
system.cpu.icache.overall_mshr_miss_latency::total      4924781                       # number of overall MSHR miss cycles
system.cpu.icache.demand_mshr_miss_rate::.switch_cpus.inst     0.000253                       # mshr miss rate for demand accesses
system.cpu.icache.demand_mshr_miss_rate::total     0.000253                       # mshr miss rate for demand accesses
system.cpu.icache.overall_mshr_miss_rate::.switch_cpus.inst     0.000253                       # mshr miss rate for overall accesses
system.cpu.icache.overall_mshr_miss_rate::total     0.000253                       # mshr miss rate for overall accesses
system.cpu.icache.demand_avg_mshr_miss_latency::.switch_cpus.inst 73504.194030                       # average overall mshr miss latency
system.cpu.icache.demand_avg_mshr_miss_latency::total 73504.194030                       # average overall mshr miss latency
system.cpu.icache.overall_avg_mshr_miss_latency::.switch_cpus.inst 73504.194030                       # average overall mshr miss latency
system.cpu.icache.overall_avg_mshr_miss_latency::total 73504.194030                       # average overall mshr miss latency
system.cpu.icache.replacements                      0                       # number of replacements
system.cpu.icache.ReadReq_hits::.cpu.inst           26                       # number of ReadReq hits
system.cpu.icache.ReadReq_hits::.switch_cpus.inst       264405                       # number of ReadReq hits
system.cpu.icache.ReadReq_hits::total          264431                       # number of ReadReq hits
system.cpu.icache.ReadReq_misses::.cpu.inst            3                       # number of ReadReq misses
system.cpu.icache.ReadReq_misses::.switch_cpus.inst           99                       # number of ReadReq misses
system.cpu.icache.ReadReq_misses::total           102                       # number of ReadReq misses
system.cpu.icache.ReadReq_miss_latency::.switch_cpus.inst      6531383                       # number of ReadReq miss cycles
system.cpu.icache.ReadReq_miss_latency::total      6531383                       # number of ReadReq miss cycles
system.cpu.icache.ReadReq_accesses::.cpu.inst           29                       # number of ReadReq accesses(hits+misses)
system.cpu.icache.ReadReq_accesses::.switch_cpus.inst       264504                       # number of ReadReq accesses(hits+misses)
system.cpu.icache.ReadReq_accesses::total       264533                       # number of ReadReq accesses(hits+misses)
system.cpu.icache.ReadReq_miss_rate::.cpu.inst     0.103448                       # miss rate for ReadReq accesses
system.cpu.icache.ReadReq_miss_rate::.switch_cpus.inst     0.000374                       # miss rate for ReadReq accesses
system.cpu.icache.ReadReq_miss_rate::total     0.000386                       # miss rate for ReadReq accesses
system.cpu.icache.ReadReq_avg_miss_latency::.switch_cpus.inst 65973.565657                       # average ReadReq miss latency
system.cpu.icache.ReadReq_avg_miss_latency::total 64033.166667                       # average ReadReq miss latency
system.cpu.icache.ReadReq_mshr_hits::.switch_cpus.inst           32                       # number of ReadReq MSHR hits
system.cpu.icache.ReadReq_mshr_hits::total           32                       # number of ReadReq MSHR hits
system.cpu.icache.ReadReq_mshr_misses::.switch_cpus.inst           67                       # number of ReadReq MSHR misses
system.cpu.icache.ReadReq_mshr_misses::total           67                       # number of ReadReq MSHR misses
system.cpu.icache.ReadReq_mshr_miss_latency::.switch_cpus.inst      4924781                       # number of ReadReq MSHR miss cycles
system.cpu.icache.ReadReq_mshr_miss_latency::total      4924781                       # number of ReadReq MSHR miss cycles
system.cpu.icache.ReadReq_mshr_miss_rate::.switch_cpus.inst     0.000253                       # mshr miss rate for ReadReq accesses
system.cpu.icache.ReadReq_mshr_miss_rate::total     0.000253                       # mshr miss rate for ReadReq accesses
system.cpu.icache.ReadReq_avg_mshr_miss_latency::.switch_cpus.inst 73504.194030                       # average ReadReq mshr miss latency
system.cpu.icache.ReadReq_avg_mshr_miss_latency::total 73504.194030                       # average ReadReq mshr miss latency
system.cpu.icache.power_state.pwrStateResidencyTicks::UNDEFINED 264202995067                       # Cumulative time (in ticks) in various power states
system.cpu.icache.tags.tagsinuse            67.632178                       # Cycle average of tags in use
system.cpu.icache.tags.total_refs                   0                       # Total number of references to valid blocks.
system.cpu.icache.tags.sampled_refs                 0                       # Sample count of references to valid blocks.
system.cpu.icache.tags.avg_refs                   nan                       # Average number of references to valid blocks.
system.cpu.icache.tags.warmup_cycle      263969571042                       # Cycle when the warmup percentage was hit.
system.cpu.icache.tags.occ_blocks::.cpu.inst     2.999970                       # Average occupied blocks per requestor
system.cpu.icache.tags.occ_blocks::.switch_cpus.inst    64.632209                       # Average occupied blocks per requestor
system.cpu.icache.tags.occ_percent::.cpu.inst     0.005859                       # Average percentage of cache occupancy
system.cpu.icache.tags.occ_percent::.switch_cpus.inst     0.126235                       # Average percentage of cache occupancy
system.cpu.icache.tags.occ_percent::total     0.132094                       # Average percentage of cache occupancy
system.cpu.icache.tags.occ_task_id_blocks::1024           70                       # Occupied blocks per task id
system.cpu.icache.tags.age_task_id_blocks_1024::2           70                       # Occupied blocks per task id
system.cpu.icache.tags.occ_task_id_percent::1024     0.136719                       # Percentage of cache occupancy per task id
system.cpu.icache.tags.tag_accesses           2116334                       # Number of tag accesses
system.cpu.icache.tags.data_accesses          2116334                       # Number of data accesses
system.cpu.icache.tags.power_state.pwrStateResidencyTicks::UNDEFINED 264202995067                       # Cumulative time (in ticks) in various power states
system.cpu.itb.instHits                             0                       # ITB inst hits
system.cpu.itb.instMisses                           0                       # ITB inst misses
system.cpu.itb.readHits                             0                       # DTB read hits
system.cpu.itb.readMisses                           0                       # DTB read misses
system.cpu.itb.writeHits                            0                       # DTB write hits
system.cpu.itb.writeMisses                          0                       # DTB write misses
system.cpu.itb.inserts                              0                       # Number of times an entry is inserted into the TLB
system.cpu.itb.flushTlb                             2                       # Number of times complete TLB was flushed
system.cpu.itb.flushTlbMva                          0                       # Number of times TLB was flushed by MVA
system.cpu.itb.flushTlbMvaAsid                      0                       # Number of times TLB was flushed by MVA & ASID
system.cpu.itb.flushTlbAsid                         0                       # Number of times TLB was flushed by ASID
system.cpu.itb.flushedEntries                       0                       # Number of entries that have been flushed from TLB
system.cpu.itb.alignFaults                          0                       # Number of TLB faults due to alignment restrictions
system.cpu.itb.prefetchFaults                       0                       # Number of TLB faults due to prefetch
system.cpu.itb.domainFaults                         0                       # Number of TLB faults due to domain restrictions
system.cpu.itb.permsFaults                          0                       # Number of TLB faults due to permissions restrictions
system.cpu.itb.readAccesses                         0                       # DTB read accesses
system.cpu.itb.writeAccesses                        0                       # DTB write accesses
system.cpu.itb.instAccesses                         0                       # ITB inst accesses
system.cpu.itb.hits                                 0                       # Total TLB (inst and data) hits
system.cpu.itb.misses                               0                       # Total TLB (inst and data) misses
system.cpu.itb.accesses                             0                       # Total TLB (inst and data) accesses
system.cpu.itb.stage2_mmu.stage2_tlb.instHits            0                       # ITB inst hits
system.cpu.itb.stage2_mmu.stage2_tlb.instMisses            0                       # ITB inst misses
system.cpu.itb.stage2_mmu.stage2_tlb.readHits            0                       # DTB read hits
system.cpu.itb.stage2_mmu.stage2_tlb.readMisses            0                       # DTB read misses
system.cpu.itb.stage2_mmu.stage2_tlb.writeHits            0                       # DTB write hits
system.cpu.itb.stage2_mmu.stage2_tlb.writeMisses            0                       # DTB write misses
system.cpu.itb.stage2_mmu.stage2_tlb.inserts            0                       # Number of times an entry is inserted into the TLB
system.cpu.itb.stage2_mmu.stage2_tlb.flushTlb            0                       # Number of times complete TLB was flushed
system.cpu.itb.stage2_mmu.stage2_tlb.flushTlbMva            0                       # Number of times TLB was flushed by MVA
system.cpu.itb.stage2_mmu.stage2_tlb.flushTlbMvaAsid            0                       # Number of times TLB was flushed by MVA & ASID
system.cpu.itb.stage2_mmu.stage2_tlb.flushTlbAsid            0                       # Number of times TLB was flushed by ASID
system.cpu.itb.stage2_mmu.stage2_tlb.flushedEntries            0                       # Number of entries that have been flushed from TLB
system.cpu.itb.stage2_mmu.stage2_tlb.alignFaults            0                       # Number of TLB faults due to alignment restrictions
system.cpu.itb.stage2_mmu.stage2_tlb.prefetchFaults            0                       # Number of TLB faults due to prefetch
system.cpu.itb.stage2_mmu.stage2_tlb.domainFaults            0                       # Number of TLB faults due to domain restrictions
system.cpu.itb.stage2_mmu.stage2_tlb.permsFaults            0                       # Number of TLB faults due to permissions restrictions
system.cpu.itb.stage2_mmu.stage2_tlb.readAccesses            0                       # DTB read accesses
system.cpu.itb.stage2_mmu.stage2_tlb.writeAccesses            0                       # DTB write accesses
system.cpu.itb.stage2_mmu.stage2_tlb.instAccesses            0                       # ITB inst accesses
system.cpu.itb.stage2_mmu.stage2_tlb.hits            0                       # Total TLB (inst and data) hits
system.cpu.itb.stage2_mmu.stage2_tlb.misses            0                       # Total TLB (inst and data) misses
system.cpu.itb.stage2_mmu.stage2_tlb.accesses            0                       # Total TLB (inst and data) accesses
system.cpu.itb.stage2_mmu.stage2_tlb.walker.walks            0                       # Table walker walks requested
system.cpu.itb.stage2_mmu.stage2_tlb.walker.requestOrigin_Requested::Data            0                       # Table walker requests started/completed, data/inst
system.cpu.itb.stage2_mmu.stage2_tlb.walker.requestOrigin_Requested::Inst            0                       # Table walker requests started/completed, data/inst
system.cpu.itb.stage2_mmu.stage2_tlb.walker.requestOrigin_Requested::total            0                       # Table walker requests started/completed, data/inst
system.cpu.itb.stage2_mmu.stage2_tlb.walker.requestOrigin_Completed::Data            0                       # Table walker requests started/completed, data/inst
system.cpu.itb.stage2_mmu.stage2_tlb.walker.requestOrigin_Completed::Inst            0                       # Table walker requests started/completed, data/inst
system.cpu.itb.stage2_mmu.stage2_tlb.walker.requestOrigin_Completed::total            0                       # Table walker requests started/completed, data/inst
system.cpu.itb.stage2_mmu.stage2_tlb.walker.requestOrigin::total            0                       # Table walker requests started/completed, data/inst
system.cpu.itb.stage2_mmu.stage2_tlb.walker.power_state.pwrStateResidencyTicks::UNDEFINED 264202995067                       # Cumulative time (in ticks) in various power states
system.cpu.itb.walker.walks                         0                       # Table walker walks requested
system.cpu.itb.walker.requestOrigin_Requested::Data            0                       # Table walker requests started/completed, data/inst
system.cpu.itb.walker.requestOrigin_Requested::Inst            0                       # Table walker requests started/completed, data/inst
system.cpu.itb.walker.requestOrigin_Requested::total            0                       # Table walker requests started/completed, data/inst
system.cpu.itb.walker.requestOrigin_Completed::Data            0                       # Table walker requests started/completed, data/inst
system.cpu.itb.walker.requestOrigin_Completed::Inst            0                       # Table walker requests started/completed, data/inst
system.cpu.itb.walker.requestOrigin_Completed::total            0                       # Table walker requests started/completed, data/inst
system.cpu.itb.walker.requestOrigin::total            0                       # Table walker requests started/completed, data/inst
system.cpu.itb.walker.power_state.pwrStateResidencyTicks::UNDEFINED 264202995067                       # Cumulative time (in ticks) in various power states
system.cpu.power_state.numTransitions               1                       # Number of power state transitions
system.cpu.power_state.pwrStateResidencyTicks::ON 263969580400                       # Cumulative time (in ticks) in various power states
system.cpu.power_state.pwrStateResidencyTicks::OFF    233414667                       # Cumulative time (in ticks) in various power states
system.cpu.thread_0.numInsts                        0                       # Number of Instructions committed
system.cpu.thread_0.numOps                          0                       # Number of Ops committed
system.cpu.thread_0.numMemRefs                      0                       # Number of Memory References
system.cpu_clk_domain.clock                       323                       # Clock period in ticks
system.cpu_voltage_domain.voltage                   1                       # Voltage in Volts
system.l2.demand_hits::.switch_cpus.data           51                       # number of demand (read+write) hits
system.l2.demand_hits::total                       51                       # number of demand (read+write) hits
system.l2.overall_hits::.switch_cpus.data           51                       # number of overall hits
system.l2.overall_hits::total                      51                       # number of overall hits
system.l2.demand_misses::.cpu.inst                  3                       # number of demand (read+write) misses
system.l2.demand_misses::.cpu.data                  5                       # number of demand (read+write) misses
[...]
system.switch_cpus.dtb.walker.requestOrigin_Completed::Inst            0                       # Table walker requests started/completed, data/inst
system.switch_cpus.dtb.walker.requestOrigin_Completed::total            0                       # Table walker requests started/completed, data/inst
system.switch_cpus.dtb.walker.requestOrigin::total            0                       # Table walker requests started/completed, data/inst
system.switch_cpus.dtb.walker.power_state.pwrStateResidencyTicks::UNDEFINED   2204026999                       # Cumulative time (in ticks) in various power states
system.switch_cpus.fetch.icacheStallCycles      2668092                       # Number of cycles fetch is stalled on an Icache miss
system.switch_cpus.fetch.insts               15565472                       # Number of instructions fetch has processed
system.switch_cpus.fetch.branches             3109056                       # Number of branches that fetch encountered
system.switch_cpus.fetch.predictedBranches      2046521                       # Number of branches that fetch has predicted taken
system.switch_cpus.fetch.cycles               3978728                       # Number of cycles fetch has run and was not squashing or blocked
system.switch_cpus.fetch.squashCycles          353586                       # Number of cycles fetch has spent squashing
system.switch_cpus.fetch.cacheLines           2564899                       # Number of cache lines fetched
system.switch_cpus.fetch.icacheSquashes         64683                       # Number of outstanding Icache misses that were squashed
system.switch_cpus.fetch.nisnDist::samples      6823613                       # Number of instructions fetched each cycle (Total)
system.switch_cpus.fetch.nisnDist::mean      2.586363                       # Number of instructions fetched each cycle (Total)
system.switch_cpus.fetch.nisnDist::stdev     3.053148                       # Number of instructions fetched each cycle (Total)
system.switch_cpus.fetch.nisnDist::underflows            0      0.00%      0.00% # Number of instructions fetched each cycle (Total)
system.switch_cpus.fetch.nisnDist::0          3215467     47.12%     47.12% # Number of instructions fetched each cycle (Total)
system.switch_cpus.fetch.nisnDist::1           192761      2.82%     49.95% # Number of instructions fetched each cycle (Total)
system.switch_cpus.fetch.nisnDist::2           862724     12.64%     62.59% # Number of instructions fetched each cycle (Total)
system.switch_cpus.fetch.nisnDist::3           262655      3.85%     66.44% # Number of instructions fetched each cycle (Total)
system.switch_cpus.fetch.nisnDist::4           388952      5.70%     72.14% # Number of instructions fetched each cycle (Total)
system.switch_cpus.fetch.nisnDist::5           341896      5.01%     77.15% # Number of instructions fetched each cycle (Total)
system.switch_cpus.fetch.nisnDist::6           317133      4.65%     81.80% # Number of instructions fetched each cycle (Total)
system.switch_cpus.fetch.nisnDist::7           162121      2.38%     84.17% # Number of instructions fetched each cycle (Total)
system.switch_cpus.fetch.nisnDist::8          1079904     15.83%    100.00% # Number of instructions fetched each cycle (Total)
system.switch_cpus.fetch.nisnDist::overflows            0      0.00%    100.00% # Number of instructions fetched each cycle (Total)
system.switch_cpus.fetch.nisnDist::min_value            0                       # Number of instructions fetched each cycle (Total)
system.switch_cpus.fetch.nisnDist::max_value            8                       # Number of instructions fetched each cycle (Total)
system.switch_cpus.fetch.nisnDist::total      6823613                       # Number of instructions fetched each cycle (Total)
system.switch_cpus.fetch.branchRate          0.455632                       # Number of branch fetches per cycle
system.switch_cpus.fetch.rate                2.281119                       # Number of inst fetches per cycle
system.switch_cpus.itb.instHits                     0                       # ITB inst hits
system.switch_cpus.itb.instMisses                   0                       # ITB inst misses
system.switch_cpus.itb.readHits                     0                       # DTB read hits
system.switch_cpus.itb.readMisses                   0                       # DTB read misses
system.switch_cpus.itb.writeHits                    0                       # DTB write hits
system.switch_cpus.itb.writeMisses                  0                       # DTB write misses
system.switch_cpus.itb.inserts                      0                       # Number of times an entry is inserted into the TLB
system.switch_cpus.itb.flushTlb                     0                       # Number of times complete TLB was flushed
system.switch_cpus.itb.flushTlbMva                  0                       # Number of times TLB was flushed by MVA
system.switch_cpus.itb.flushTlbMvaAsid              0                       # Number of times TLB was flushed by MVA & ASID
system.switch_cpus.itb.flushTlbAsid                 0                       # Number of times TLB was flushed by ASID
system.switch_cpus.itb.flushedEntries               0                       # Number of entries that have been flushed from TLB
system.switch_cpus.itb.alignFaults                  0                       # Number of TLB faults due to alignment restrictions
system.switch_cpus.itb.prefetchFaults               0                       # Number of TLB faults due to prefetch
system.switch_cpus.itb.domainFaults                 0                       # Number of TLB faults due to domain restrictions
system.switch_cpus.itb.permsFaults                  0                       # Number of TLB faults due to permissions restrictions
system.switch_cpus.itb.readAccesses                 0                       # DTB read accesses
system.switch_cpus.itb.writeAccesses                0                       # DTB write accesses
system.switch_cpus.itb.instAccesses                 0                       # ITB inst accesses
system.switch_cpus.itb.hits                         0                       # Total TLB (inst and data) hits
system.switch_cpus.itb.misses                       0                       # Total TLB (inst and data) misses
system.switch_cpus.itb.accesses                     0                       # Total TLB (inst and data) accesses
system.switch_cpus.itb.stage2_mmu.stage2_tlb.instHits            0                       # ITB inst hits
system.switch_cpus.itb.stage2_mmu.stage2_tlb.instMisses            0                       # ITB inst misses
system.switch_cpus.itb.stage2_mmu.stage2_tlb.readHits            0                       # DTB read hits
system.switch_cpus.itb.stage2_mmu.stage2_tlb.readMisses            0                       # DTB read misses
system.switch_cpus.itb.stage2_mmu.stage2_tlb.writeHits            0                       # DTB write hits
system.switch_cpus.itb.stage2_mmu.stage2_tlb.writeMisses            0                       # DTB write misses
system.switch_cpus.itb.stage2_mmu.stage2_tlb.inserts            0                       # Number of times an entry is inserted into the TLB
system.switch_cpus.itb.stage2_mmu.stage2_tlb.flushTlb            0                       # Number of times complete TLB was flushed
system.switch_cpus.itb.stage2_mmu.stage2_tlb.flushTlbMva            0                       # Number of times TLB was flushed by MVA
system.switch_cpus.itb.stage2_mmu.stage2_tlb.flushTlbMvaAsid            0                       # Number of times TLB was flushed by MVA & ASID
system.switch_cpus.itb.stage2_mmu.stage2_tlb.flushTlbAsid            0                       # Number of times TLB was flushed by ASID
system.switch_cpus.itb.stage2_mmu.stage2_tlb.flushedEntries            0                       # Number of entries that have been flushed from TLB
system.switch_cpus.itb.stage2_mmu.stage2_tlb.alignFaults            0                       # Number of TLB faults due to alignment restrictions
system.switch_cpus.itb.stage2_mmu.stage2_tlb.prefetchFaults            0                       # Number of TLB faults due to prefetch
system.switch_cpus.itb.stage2_mmu.stage2_tlb.domainFaults            0                       # Number of TLB faults due to domain restrictions
system.switch_cpus.itb.stage2_mmu.stage2_tlb.permsFaults            0                       # Number of TLB faults due to permissions restrictions
system.switch_cpus.itb.stage2_mmu.stage2_tlb.readAccesses            0                       # DTB read accesses
system.switch_cpus.itb.stage2_mmu.stage2_tlb.writeAccesses            0                       # DTB write accesses
system.switch_cpus.itb.stage2_mmu.stage2_tlb.instAccesses            0                       # ITB inst accesses
system.switch_cpus.itb.stage2_mmu.stage2_tlb.hits            0                       # Total TLB (inst and data) hits
system.switch_cpus.itb.stage2_mmu.stage2_tlb.misses            0                       # Total TLB (inst and data) misses
system.switch_cpus.itb.stage2_mmu.stage2_tlb.accesses            0                       # Total TLB (inst and data) accesses
system.switch_cpus.itb.stage2_mmu.stage2_tlb.walker.walks            0                       # Table walker walks requested
system.switch_cpus.itb.stage2_mmu.stage2_tlb.walker.requestOrigin_Requested::Data            0                       # Table walker requests started/completed, data/inst
system.switch_cpus.itb.stage2_mmu.stage2_tlb.walker.requestOrigin_Requested::Inst            0                       # Table walker requests started/completed, data/inst
system.switch_cpus.itb.stage2_mmu.stage2_tlb.walker.requestOrigin_Requested::total            0                       # Table walker requests started/completed, data/inst
system.switch_cpus.itb.stage2_mmu.stage2_tlb.walker.requestOrigin_Completed::Data            0                       # Table walker requests started/completed, data/inst
system.switch_cpus.itb.stage2_mmu.stage2_tlb.walker.requestOrigin_Completed::Inst            0                       # Table walker requests started/completed, data/inst
system.switch_cpus.itb.stage2_mmu.stage2_tlb.walker.requestOrigin_Completed::total            0                       # Table walker requests started/completed, data/inst
system.switch_cpus.itb.stage2_mmu.stage2_tlb.walker.requestOrigin::total            0                       # Table walker requests started/completed, data/inst
system.switch_cpus.itb.stage2_mmu.stage2_tlb.walker.power_state.pwrStateResidencyTicks::UNDEFINED   2204026999                       # Cumulative time (in ticks) in various power states
system.switch_cpus.itb.walker.walks                 0                       # Table walker walks requested
system.switch_cpus.itb.walker.requestOrigin_Requested::Data            0                       # Table walker requests started/completed, data/inst
system.switch_cpus.itb.walker.requestOrigin_Requested::Inst            0                       # Table walker requests started/completed, data/inst
system.switch_cpus.itb.walker.requestOrigin_Requested::total            0                       # Table walker requests started/completed, data/inst
system.switch_cpus.itb.walker.requestOrigin_Completed::Data            0                       # Table walker requests started/completed, data/inst
system.switch_cpus.itb.walker.requestOrigin_Completed::Inst            0                       # Table walker requests started/completed, data/inst
system.switch_cpus.itb.walker.requestOrigin_Completed::total            0                       # Table walker requests started/completed, data/inst
system.switch_cpus.itb.walker.requestOrigin::total            0                       # Table walker requests started/completed, data/inst
system.switch_cpus.itb.walker.power_state.pwrStateResidencyTicks::UNDEFINED   2204026999                       # Cumulative time (in ticks) in various power states
system.switch_cpus.lsq0.forwLoads             1283923                       # Number of loads that had data forwarded from stores
system.switch_cpus.lsq0.squashedLoads         1013743                       # Number of loads squashed
system.switch_cpus.lsq0.ignoredResponses          578                       # Number of memory responses ignored because the instruction is squashed
system.switch_cpus.lsq0.memOrderViolation          681                       # Number of memory ordering violations
system.switch_cpus.lsq0.squashedStores         588004                       # Number of stores squashed
system.switch_cpus.lsq0.rescheduledLoads         5558                       # Number of loads that were rescheduled
system.switch_cpus.lsq0.blockedByCache              3                       # Number of times an access to memory failed due to the cache being blocked
system.switch_cpus.power_state.pwrStateResidencyTicks::OFF   2204026999                       # Cumulative time (in ticks) in various power states
system.switch_cpus.rename.squashCycles         176793                       # Number of cycles rename is squashing
system.switch_cpus.rename.idleCycles          2467944                       # Number of cycles rename is idle
system.switch_cpus.rename.blockCycles          607798                       # Number of cycles rename is blocking
system.switch_cpus.rename.serializeStallCycles         5186                       # count of cycles rename stalledfor serializing inst
system.switch_cpus.rename.runCycles           3303978                       # Number of cycles rename is running
system.switch_cpus.rename.unblockCycles        261914                       # Number of cycles rename is unblocking
system.switch_cpus.rename.renamedInsts       16799308                       # Number of instructions processed by rename
system.switch_cpus.rename.ROBFullEvents           930                       # Number of times rename has blocked due to ROB full
system.switch_cpus.rename.IQFullEvents            538                       # Number of times rename has blocked due to IQ full
system.switch_cpus.rename.LQFullEvents         233563                       # Number of times rename has blocked due to LQ full
system.switch_cpus.rename.SQFullEvents          23135                       # Number of times rename has blocked due to SQ full
system.switch_cpus.rename.renamedOperands     17221414                       # Number of destination operands rename has renamed
system.switch_cpus.rename.lookups            24358802                       # Number of register rename lookups that rename has made
system.switch_cpus.rename.intLookups         18953031                       # Number of integer rename lookups
system.switch_cpus.rename.committedMaps      11768475                       # Number of HB maps that are committed
system.switch_cpus.rename.undoneMaps          5452965                       # Number of HB maps that are undone due to squashing
system.switch_cpus.rename.serializing             385                       # count of serializing insts renamed
system.switch_cpus.rename.tempSerializing            0                       # count of temporary serializing insts renamed
system.switch_cpus.rename.skidInsts             78932                       # count of insts added to the skid buffer
system.switch_cpus.rob.reads                 21346287                       # The number of ROB reads
system.switch_cpus.rob.writes                32381061                       # The number of ROB writes
system.switch_cpus.thread_0.numInsts          9999999                       # Number of Instructions committed
system.switch_cpus.thread_0.numOps           11450145                       # Number of Ops committed
system.switch_cpus.thread_0.numMemRefs              0                       # Number of Memory References
system.tol2bus.trans_dist::ReadResp              2225                       # Transaction distribution
system.tol2bus.trans_dist::WritebackDirty         2584                       # Transaction distribution
system.tol2bus.trans_dist::CleanEvict              46                       # Transaction distribution
system.tol2bus.trans_dist::HardPFReq              307                       # Transaction distribution
system.tol2bus.trans_dist::ReadExReq              407                       # Transaction distribution
system.tol2bus.trans_dist::ReadExResp             407                       # Transaction distribution
system.tol2bus.trans_dist::ReadCleanReq             2                       # Transaction distribution
system.tol2bus.trans_dist::ReadSharedReq         2223                       # Transaction distribution
system.tol2bus.pkt_count_system.cpu.icache.mem_side_port::system.l2.cpu_side_port            4                       # Packet count per connected requestor and responder (bytes)
system.tol2bus.pkt_count_system.cpu.dcache.mem_side_port::system.l2.cpu_side_port         7890                       # Packet count per connected requestor and responder (bytes)
system.tol2bus.pkt_count::total                  7894                       # Packet count per connected requestor and responder (bytes)
system.tol2bus.pkt_size_system.cpu.icache.mem_side_port::system.l2.cpu_side_port          256                       # Cumulative packet size per connected requestor and responder (bytes)
system.tol2bus.pkt_size_system.cpu.dcache.mem_side_port::system.l2.cpu_side_port       667392                       # Cumulative packet size per connected requestor and responder (bytes)
system.tol2bus.pkt_size::total                 667648                       # Cumulative packet size per connected requestor and responder (bytes)
system.tol2bus.snoops                             307                       # Total snoops (count)
system.tol2bus.snoopTraffic                         0                       # Total snoop traffic (bytes)
system.tol2bus.snoop_fanout::samples             2939                       # Request fanout histogram
system.tol2bus.snoop_fanout::mean            0.001021                       # Request fanout histogram
system.tol2bus.snoop_fanout::stdev           0.031938                       # Request fanout histogram
system.tol2bus.snoop_fanout::underflows             0      0.00%      0.00% # Request fanout histogram
system.tol2bus.snoop_fanout::0                   2936     99.90%     99.90% # Request fanout histogram
system.tol2bus.snoop_fanout::1                      3      0.10%    100.00% # Request fanout histogram
system.tol2bus.snoop_fanout::2                      0      0.00%    100.00% # Request fanout histogram
system.tol2bus.snoop_fanout::overflows              0      0.00%    100.00% # Request fanout histogram
system.tol2bus.snoop_fanout::min_value              0                       # Request fanout histogram
system.tol2bus.snoop_fanout::max_value              1                       # Request fanout histogram
system.tol2bus.snoop_fanout::total               2939                       # Request fanout histogram
system.tol2bus.power_state.pwrStateResidencyTicks::UNDEFINED   2204026999                       # Cumulative time (in ticks) in various power states
system.tol2bus.reqLayer0.occupancy            5038154                       # Layer occupancy (ticks)
system.tol2bus.reqLayer0.utilization              0.2                       # Layer utilization (%)
system.tol2bus.respLayer0.occupancy              3230                       # Layer occupancy (ticks)
system.tol2bus.respLayer0.utilization             0.0                       # Layer utilization (%)
system.tol2bus.respLayer1.occupancy           4247450                       # Layer occupancy (ticks)
system.tol2bus.respLayer1.utilization             0.2                       # Layer utilization (%)
system.voltage_domain.voltage                       1                       # Voltage in Volts

---------- End Simulation Statistics   ----------
