
---------- Begin Simulation Statistics ----------
final_tick                               578325495430                       # Number of ticks from beginning of simulation (restored from checkpoints and never reset)
host_inst_rate                                 313915                       # Simulator instruction rate (inst/s)
host_mem_usage                               16966284                       # Number of bytes of host memory used
host_op_rate                                   313962                       # Simulator op (including micro ops) rate (op/s)
host_seconds                                     3.19                       # Real time elapsed on the host
host_tick_rate                              169316119                       # Simulator tick rate (ticks/s)
sim_freq                                 1000000000000                       # Frequency of simulated ticks
sim_insts                                     1000030                       # Number of instructions simulated
sim_ops                                       1000195                       # Number of ops (including micro ops) simulated
sim_seconds                                  0.000539                       # Number of seconds simulated
sim_ticks                                   539395030                       # Number of ticks simulated
system.cpu.Branches                                 3                       # Number of branches fetched
system.cpu.committedInsts                          30                       # Number of instructions committed
system.cpu.committedOps                            30                       # Number of ops (including micro ops) committed
system.cpu.idle_fraction                            0                       # Percentage of idle cycles
system.cpu.not_idle_fraction                        1                       # Percentage of non-idle cycles
system.cpu.numCycles                               30                       # number of cpu cycles simulated
system.cpu.numWorkItemsCompleted                    0                       # number of work items this cpu completed
system.cpu.numWorkItemsStarted                      0                       # number of work items this cpu started
system.cpu.num_busy_cycles                         30                       # Number of busy cycles
system.cpu.num_cc_register_reads                    9                       # number of times the CC registers were read
system.cpu.num_cc_register_writes                   9                       # number of times the CC registers were written
system.cpu.num_conditional_control_insts            3                       # number of instructions that are conditional controls
system.cpu.num_fp_alu_accesses                      0                       # Number of float alu accesses
system.cpu.num_fp_insts                             0                       # number of float instructions
system.cpu.num_fp_register_reads                    0                       # number of times the floating registers were read
system.cpu.num_fp_register_writes                   0                       # number of times the floating registers were written
system.cpu.num_func_calls                           0                       # number of times a function call or return occured
system.cpu.num_idle_cycles                          0                       # Number of idle cycles
system.cpu.num_int_alu_accesses                    27                       # Number of integer alu accesses
system.cpu.num_int_insts                           27                       # number of integer instructions
system.cpu.num_int_register_reads                  33                       # number of times the integer registers were read
system.cpu.num_int_register_writes                 24                       # number of times the integer registers were written
system.cpu.num_load_insts                          12                       # Number of load instructions
system.cpu.num_mem_refs                            15                       # number of memory refs
system.cpu.num_store_insts                          3                       # Number of store instructions
system.cpu.num_vec_alu_accesses                     0                       # Number of vector alu accesses
system.cpu.num_vec_insts                            0                       # number of vector instructions
system.cpu.num_vec_register_reads                   0                       # number of times the vector registers were read
system.cpu.num_vec_register_writes                  0                       # number of times the vector registers were written
system.cpu.op_class::No_OpClass                     0      0.00%      0.00% # Class of executed instruction
system.cpu.op_class::IntAlu                        15     50.00%     50.00% # Class of executed instruction
system.cpu.op_class::IntMult                        0      0.00%     50.00% # Class of executed instruction
system.cpu.op_class::IntDiv                         0      0.00%     50.00% # Class of executed instruction
system.cpu.op_class::FloatAdd                       0      0.00%     50.00% # Class of executed instruction
system.cpu.op_class::FloatCmp                       0      0.00%     50.00% # Class of executed instruction
system.cpu.op_class::FloatCvt                       0      0.00%     50.00% # Class of executed instruction
system.cpu.op_class::FloatMult                      0      0.00%     50.00% # Class of executed instruction
system.cpu.op_class::FloatMultAcc                   0      0.00%     50.00% # Class of executed instruction
system.cpu.op_class::FloatDiv                       0      0.00%     50.00% # Class of executed instruction
system.cpu.op_class::FloatMisc                      0      0.00%     50.00% # Class of executed instruction
system.cpu.op_class::FloatSqrt                      0      0.00%     50.00% # Class of executed instruction
system.cpu.op_class::SimdAdd                        0      0.00%     50.00% # Class of executed instruction
system.cpu.op_class::SimdAddAcc                     0      0.00%     50.00% # Class of executed instruction
system.cpu.op_class::SimdAlu                        0      0.00%     50.00% # Class of executed instruction
system.cpu.op_class::SimdCmp                        0      0.00%     50.00% # Class of executed instruction
system.cpu.op_class::SimdCvt                        0      0.00%     50.00% # Class of executed instruction
system.cpu.op_class::SimdMisc                       0      0.00%     50.00% # Class of executed instruction
system.cpu.op_class::SimdMult                       0      0.00%     50.00% # Class of executed instruction
system.cpu.op_class::SimdMultAcc                    0      0.00%     50.00% # Class of executed instruction
system.cpu.op_class::SimdShift                      0      0.00%     50.00% # Class of executed instruction
system.cpu.op_class::SimdShiftAcc                   0      0.00%     50.00% # Class of executed instruction
system.cpu.op_class::SimdDiv                        0      0.00%     50.00% # Class of executed instruction
system.cpu.op_class::SimdSqrt                       0      0.00%     50.00% # Class of executed instruction
system.cpu.op_class::SimdFloatAdd                   0      0.00%     50.00% # Class of executed instruction
system.cpu.op_class::SimdFloatAlu                   0      0.00%     50.00% # Class of executed instruction
system.cpu.op_class::SimdFloatCmp                   0      0.00%     50.00% # Class of executed instruction
system.cpu.op_class::SimdFloatCvt                   0      0.00%     50.00% # Class of executed instruction
system.cpu.op_class::SimdFloatDiv                   0      0.00%     50.00% # Class of executed instruction
system.cpu.op_class::SimdFloatMisc                  0      0.00%     50.00% # Class of executed instruction
system.cpu.op_class::SimdFloatMult                  0      0.00%     50.00% # Class of executed instruction
system.cpu.op_class::SimdFloatMultAcc               0      0.00%     50.00% # Class of executed instruction
system.cpu.op_class::SimdFloatSqrt                  0      0.00%     50.00% # Class of executed instruction
system.cpu.op_class::SimdReduceAdd                  0      0.00%     50.00% # Class of executed instruction
system.cpu.op_class::SimdReduceAlu                  0      0.00%     50.00% # Class of executed instruction
system.cpu.op_class::SimdReduceCmp                  0      0.00%     50.00% # Class of executed instruction
system.cpu.op_class::SimdFloatReduceAdd             0      0.00%     50.00% # Class of executed instruction
system.cpu.op_class::SimdFloatReduceCmp             0      0.00%     50.00% # Class of executed instruction
system.cpu.op_class::SimdAes                        0      0.00%     50.00% # Class of executed instruction
system.cpu.op_class::SimdAesMix                     0      0.00%     50.00% # Class of executed instruction
system.cpu.op_class::SimdSha1Hash                   0      0.00%     50.00% # Class of executed instruction
system.cpu.op_class::SimdSha1Hash2                  0      0.00%     50.00% # Class of executed instruction
system.cpu.op_class::SimdSha256Hash                 0      0.00%     50.00% # Class of executed instruction
system.cpu.op_class::SimdSha256Hash2                0      0.00%     50.00% # Class of executed instruction
system.cpu.op_class::SimdShaSigma2                  0      0.00%     50.00% # Class of executed instruction
system.cpu.op_class::SimdShaSigma3                  0      0.00%     50.00% # Class of executed instruction
system.cpu.op_class::SimdPredAlu                    0      0.00%     50.00% # Class of executed instruction
system.cpu.op_class::MemRead                       12     40.00%     90.00% # Class of executed instruction
system.cpu.op_class::MemWrite                       3     10.00%    100.00% # Class of executed instruction
system.cpu.op_class::FloatMemRead                   0      0.00%    100.00% # Class of executed instruction
system.cpu.op_class::FloatMemWrite                  0      0.00%    100.00% # Class of executed instruction
system.cpu.op_class::IprAccess                      0      0.00%    100.00% # Class of executed instruction
system.cpu.op_class::InstPrefetch                   0      0.00%    100.00% # Class of executed instruction
system.cpu.op_class::total                         30                       # Class of executed instruction
system.cpu.workload.numSyscalls                     3                       # Number of system calls
system.membus.snoop_filter.hit_multi_requests            0                       # Number of requests hitting in the snoop filter with multiple (>1) holders of the requested data.
system.membus.snoop_filter.hit_multi_snoops            0                       # Number of snoops hitting in the snoop filter with multiple (>1) holders of the requested data.
system.membus.snoop_filter.hit_single_requests            7                       # Number of requests hitting in the snoop filter with a single holder of the requested data.
system.membus.snoop_filter.hit_single_snoops            0                       # Number of snoops hitting in the snoop filter with a single holder of the requested data.
system.membus.snoop_filter.tot_requests          5719                       # Total number of requests made to the snoop filter.
system.membus.snoop_filter.tot_snoops               0                       # Total number of snoops made to the snoop filter.
system.switch_cpus.cc_regfile_reads            277113                       # number of cc regfile reads
system.switch_cpus.cc_regfile_writes           277623                       # number of cc regfile writes
system.switch_cpus.committedInsts             1000000                       # Number of Instructions Simulated
system.switch_cpus.committedOps               1000165                       # Number of Ops (including micro ops) Simulated
system.switch_cpus.cpi                       1.669922                       # CPI: Cycles Per Instruction
system.switch_cpus.cpi_total                 1.669922                       # CPI: Total CPI of All Threads
system.switch_cpus.idleCycles                   11829                       # Total number of cycles that the CPU has spent unscheduled due to idling
system.switch_cpus.iew.branchMispredicts         5233                       # Number of branch mispredicts detected at execute
system.switch_cpus.iew.exec_branches            98722                       # Number of branches executed
system.switch_cpus.iew.exec_nop                    10                       # number of nop insts executed
system.switch_cpus.iew.exec_rate             0.653987                       # Inst execution rate
system.switch_cpus.iew.exec_refs               557388                       # number of memory reference insts executed
system.switch_cpus.iew.exec_stores             104045                       # Number of stores executed
system.switch_cpus.iew.exec_swp                     0                       # number of swp insts executed
system.switch_cpus.iew.iewBlockCycles          245163                       # Number of cycles IEW is blocking
system.switch_cpus.iew.iewDispLoadInsts        485545                       # Number of dispatched load instructions
system.switch_cpus.iew.iewDispNonSpecInsts            6                       # Number of dispatched non-speculative instructions
system.switch_cpus.iew.iewDispSquashedInsts          188                       # Number of squashed instructions skipped by dispatch
system.switch_cpus.iew.iewDispStoreInsts       116001                       # Number of dispatched store instructions
system.switch_cpus.iew.iewDispatchedInsts      1191183                       # Number of instructions dispatched to IQ
system.switch_cpus.iew.iewExecLoadInsts        453343                       # Number of load instructions executed
system.switch_cpus.iew.iewExecSquashedInsts         6194                       # Number of squashed instructions skipped in execute
system.switch_cpus.iew.iewExecutedInsts       1092107                       # Number of executed instructions
system.switch_cpus.iew.iewIQFullEvents           3539                       # Number of times the IQ has become full, causing a stall
system.switch_cpus.iew.iewIdleCycles                0                       # Number of cycles IEW is idle
system.switch_cpus.iew.iewLSQFullEvents        224699                       # Number of times the LSQ has become full, causing a stall
system.switch_cpus.iew.iewSquashCycles           5397                       # Number of cycles IEW is squashing
system.switch_cpus.iew.iewUnblockCycles        229227                       # Number of cycles IEW is unblocking
system.switch_cpus.iew.memOrderViolationEvents          255                       # Number of memory order violations
system.switch_cpus.iew.predictedNotTakenIncorrect         1270                       # Number of branches that were predicted not taken incorrectly
system.switch_cpus.iew.predictedTakenIncorrect         3963                       # Number of branches that were predicted taken incorrectly
system.switch_cpus.iew.wb_consumers           1050749                       # num instructions consuming a value
system.switch_cpus.iew.wb_count               1081112                       # cumulative count of insts written-back
system.switch_cpus.iew.wb_fanout             0.823223                       # average fanout of values written-back
system.switch_cpus.iew.wb_producers            865001                       # num instructions producing a value
system.switch_cpus.iew.wb_rate               0.647403                       # insts written-back per cycle
system.switch_cpus.iew.wb_sent                1085791                       # cumulative count of insts sent to commit
system.switch_cpus.int_regfile_reads          1192511                       # number of integer regfile reads
system.switch_cpus.int_regfile_writes          883189                       # number of integer regfile writes
system.switch_cpus.ipc                       0.598830                       # IPC: Instructions Per Cycle
system.switch_cpus.ipc_total                 0.598830                       # IPC: Total IPC of All Threads
system.switch_cpus.iq.FU_type_0::No_OpClass            8      0.00%      0.00% # Type of FU issued
system.switch_cpus.iq.FU_type_0::IntAlu        535742     48.78%     48.78% # Type of FU issued
system.switch_cpus.iq.FU_type_0::IntMult            1      0.00%     48.78% # Type of FU issued
system.switch_cpus.iq.FU_type_0::IntDiv             0      0.00%     48.78% # Type of FU issued
system.switch_cpus.iq.FU_type_0::FloatAdd            4      0.00%     48.78% # Type of FU issued
system.switch_cpus.iq.FU_type_0::FloatCmp            0      0.00%     48.78% # Type of FU issued
system.switch_cpus.iq.FU_type_0::FloatCvt            0      0.00%     48.78% # Type of FU issued
system.switch_cpus.iq.FU_type_0::FloatMult            1      0.00%     48.78% # Type of FU issued
system.switch_cpus.iq.FU_type_0::FloatMultAcc            0      0.00%     48.78% # Type of FU issued
system.switch_cpus.iq.FU_type_0::FloatDiv            0      0.00%     48.78% # Type of FU issued
system.switch_cpus.iq.FU_type_0::FloatMisc            0      0.00%     48.78% # Type of FU issued
system.switch_cpus.iq.FU_type_0::FloatSqrt            0      0.00%     48.78% # Type of FU issued
system.switch_cpus.iq.FU_type_0::SimdAdd            0      0.00%     48.78% # Type of FU issued
system.switch_cpus.iq.FU_type_0::SimdAddAcc            0      0.00%     48.78% # Type of FU issued
system.switch_cpus.iq.FU_type_0::SimdAlu            0      0.00%     48.78% # Type of FU issued
system.switch_cpus.iq.FU_type_0::SimdCmp            0      0.00%     48.78% # Type of FU issued
system.switch_cpus.iq.FU_type_0::SimdCvt            5      0.00%     48.78% # Type of FU issued
system.switch_cpus.iq.FU_type_0::SimdMisc            0      0.00%     48.78% # Type of FU issued
system.switch_cpus.iq.FU_type_0::SimdMult            0      0.00%     48.78% # Type of FU issued
system.switch_cpus.iq.FU_type_0::SimdMultAcc            0      0.00%     48.78% # Type of FU issued
system.switch_cpus.iq.FU_type_0::SimdShift            0      0.00%     48.78% # Type of FU issued
system.switch_cpus.iq.FU_type_0::SimdShiftAcc            0      0.00%     48.78% # Type of FU issued
system.switch_cpus.iq.FU_type_0::SimdDiv            0      0.00%     48.78% # Type of FU issued
system.switch_cpus.iq.FU_type_0::SimdSqrt            0      0.00%     48.78% # Type of FU issued
system.switch_cpus.iq.FU_type_0::SimdFloatAdd            0      0.00%     48.78% # Type of FU issued
system.switch_cpus.iq.FU_type_0::SimdFloatAlu            0      0.00%     48.78% # Type of FU issued
system.switch_cpus.iq.FU_type_0::SimdFloatCmp            0      0.00%     48.78% # Type of FU issued
system.switch_cpus.iq.FU_type_0::SimdFloatCvt            0      0.00%     48.78% # Type of FU issued
system.switch_cpus.iq.FU_type_0::SimdFloatDiv            0      0.00%     48.78% # Type of FU issued
system.switch_cpus.iq.FU_type_0::SimdFloatMisc            0      0.00%     48.78% # Type of FU issued
system.switch_cpus.iq.FU_type_0::SimdFloatMult            0      0.00%     48.78% # Type of FU issued
system.switch_cpus.iq.FU_type_0::SimdFloatMultAcc            0      0.00%     48.78% # Type of FU issued
system.switch_cpus.iq.FU_type_0::SimdFloatSqrt            0      0.00%     48.78% # Type of FU issued
system.switch_cpus.iq.FU_type_0::SimdReduceAdd            0      0.00%     48.78% # Type of FU issued
system.switch_cpus.iq.FU_type_0::SimdReduceAlu            0      0.00%     48.78% # Type of FU issued
system.switch_cpus.iq.FU_type_0::SimdReduceCmp            0      0.00%     48.78% # Type of FU issued
system.switch_cpus.iq.FU_type_0::SimdFloatReduceAdd            0      0.00%     48.78% # Type of FU issued
system.switch_cpus.iq.FU_type_0::SimdFloatReduceCmp            0      0.00%     48.78% # Type of FU issued
system.switch_cpus.iq.FU_type_0::SimdAes            0      0.00%     48.78% # Type of FU issued
system.switch_cpus.iq.FU_type_0::SimdAesMix            0      0.00%     48.78% # Type of FU issued
system.switch_cpus.iq.FU_type_0::SimdSha1Hash            0      0.00%     48.78% # Type of FU issued
system.switch_cpus.iq.FU_type_0::SimdSha1Hash2            0      0.00%     48.78% # Type of FU issued
system.switch_cpus.iq.FU_type_0::SimdSha256Hash            0      0.00%     48.78% # Type of FU issued
system.switch_cpus.iq.FU_type_0::SimdSha256Hash2            0      0.00%     48.78% # Type of FU issued
system.switch_cpus.iq.FU_type_0::SimdShaSigma2            0      0.00%     48.78% # Type of FU issued
system.switch_cpus.iq.FU_type_0::SimdShaSigma3            0      0.00%     48.78% # Type of FU issued
system.switch_cpus.iq.FU_type_0::SimdPredAlu            0      0.00%     48.78% # Type of FU issued
system.switch_cpus.iq.FU_type_0::MemRead       458139     41.71%     90.49% # Type of FU issued
system.switch_cpus.iq.FU_type_0::MemWrite       104405      9.51%    100.00% # Type of FU issued
system.switch_cpus.iq.FU_type_0::FloatMemRead            0      0.00%    100.00% # Type of FU issued
system.switch_cpus.iq.FU_type_0::FloatMemWrite            0      0.00%    100.00% # Type of FU issued
system.switch_cpus.iq.FU_type_0::IprAccess            0      0.00%    100.00% # Type of FU issued
system.switch_cpus.iq.FU_type_0::InstPrefetch            0      0.00%    100.00% # Type of FU issued
system.switch_cpus.iq.FU_type_0::total        1098305                       # Type of FU issued
system.switch_cpus.iq.fp_alu_accesses               0                       # Number of floating point alu accesses
system.switch_cpus.iq.fp_inst_queue_reads            0                       # Number of floating instruction queue reads
system.switch_cpus.iq.fp_inst_queue_wakeup_accesses            0                       # Number of floating instruction queue wakeup accesses
system.switch_cpus.iq.fp_inst_queue_writes            0                       # Number of floating instruction queue writes
system.switch_cpus.iq.fu_busy_cnt               11727                       # FU busy when requested
system.switch_cpus.iq.fu_busy_rate           0.010677                       # FU busy rate (busy events/executed inst)
system.switch_cpus.iq.fu_full::No_OpClass            0      0.00%      0.00% # attempts to use FU when none available
system.switch_cpus.iq.fu_full::IntAlu              30      0.26%      0.26% # attempts to use FU when none available
system.switch_cpus.iq.fu_full::IntMult              0      0.00%      0.26% # attempts to use FU when none available
system.switch_cpus.iq.fu_full::IntDiv               0      0.00%      0.26% # attempts to use FU when none available
system.switch_cpus.iq.fu_full::FloatAdd             0      0.00%      0.26% # attempts to use FU when none available
system.switch_cpus.iq.fu_full::FloatCmp             0      0.00%      0.26% # attempts to use FU when none available
system.switch_cpus.iq.fu_full::FloatCvt             0      0.00%      0.26% # attempts to use FU when none available
system.switch_cpus.iq.fu_full::FloatMult            0      0.00%      0.26% # attempts to use FU when none available
system.switch_cpus.iq.fu_full::FloatMultAcc            0      0.00%      0.26% # attempts to use FU when none available
system.switch_cpus.iq.fu_full::FloatDiv             0      0.00%      0.26% # attempts to use FU when none available
system.switch_cpus.iq.fu_full::FloatMisc            0      0.00%      0.26% # attempts to use FU when none available
system.switch_cpus.iq.fu_full::FloatSqrt            0      0.00%      0.26% # attempts to use FU when none available
system.switch_cpus.iq.fu_full::SimdAdd              0      0.00%      0.26% # attempts to use FU when none available
system.switch_cpus.iq.fu_full::SimdAddAcc            0      0.00%      0.26% # attempts to use FU when none available
system.switch_cpus.iq.fu_full::SimdAlu              0      0.00%      0.26% # attempts to use FU when none available
system.switch_cpus.iq.fu_full::SimdCmp              0      0.00%      0.26% # attempts to use FU when none available
system.switch_cpus.iq.fu_full::SimdCvt              0      0.00%      0.26% # attempts to use FU when none available
system.switch_cpus.iq.fu_full::SimdMisc             0      0.00%      0.26% # attempts to use FU when none available
system.switch_cpus.iq.fu_full::SimdMult             0      0.00%      0.26% # attempts to use FU when none available
system.switch_cpus.iq.fu_full::SimdMultAcc            0      0.00%      0.26% # attempts to use FU when none available
system.switch_cpus.iq.fu_full::SimdShift            0      0.00%      0.26% # attempts to use FU when none available
system.switch_cpus.iq.fu_full::SimdShiftAcc            0      0.00%      0.26% # attempts to use FU when none available
system.switch_cpus.iq.fu_full::SimdDiv              0      0.00%      0.26% # attempts to use FU when none available
system.switch_cpus.iq.fu_full::SimdSqrt             0      0.00%      0.26% # attempts to use FU when none available
system.switch_cpus.iq.fu_full::SimdFloatAdd            0      0.00%      0.26% # attempts to use FU when none available
system.switch_cpus.iq.fu_full::SimdFloatAlu            0      0.00%      0.26% # attempts to use FU when none available
system.switch_cpus.iq.fu_full::SimdFloatCmp            0      0.00%      0.26% # attempts to use FU when none available
system.switch_cpus.iq.fu_full::SimdFloatCvt            0      0.00%      0.26% # attempts to use FU when none available
system.switch_cpus.iq.fu_full::SimdFloatDiv            0      0.00%      0.26% # attempts to use FU when none available
system.switch_cpus.iq.fu_full::SimdFloatMisc            0      0.00%      0.26% # attempts to use FU when none available
system.switch_cpus.iq.fu_full::SimdFloatMult            0      0.00%      0.26% # attempts to use FU when none available
system.switch_cpus.iq.fu_full::SimdFloatMultAcc            0      0.00%      0.26% # attempts to use FU when none available
system.switch_cpus.iq.fu_full::SimdFloatSqrt            0      0.00%      0.26% # attempts to use FU when none available
system.switch_cpus.iq.fu_full::SimdReduceAdd            0      0.00%      0.26% # attempts to use FU when none available
system.switch_cpus.iq.fu_full::SimdReduceAlu            0      0.00%      0.26% # attempts to use FU when none available
system.switch_cpus.iq.fu_full::SimdReduceCmp            0      0.00%      0.26% # attempts to use FU when none available
system.switch_cpus.iq.fu_full::SimdFloatReduceAdd            0      0.00%      0.26% # attempts to use FU when none available
system.switch_cpus.iq.fu_full::SimdFloatReduceCmp            0      0.00%      0.26% # attempts to use FU when none available
system.switch_cpus.iq.fu_full::SimdAes              0      0.00%      0.26% # attempts to use FU when none available
system.switch_cpus.iq.fu_full::SimdAesMix            0      0.00%      0.26% # attempts to use FU when none available
system.switch_cpus.iq.fu_full::SimdSha1Hash            0      0.00%      0.26% # attempts to use FU when none available
system.switch_cpus.iq.fu_full::SimdSha1Hash2            0      0.00%      0.26% # attempts to use FU when none available
system.switch_cpus.iq.fu_full::SimdSha256Hash            0      0.00%      0.26% # attempts to use FU when none available
system.switch_cpus.iq.fu_full::SimdSha256Hash2            0      0.00%      0.26% # attempts to use FU when none available
system.switch_cpus.iq.fu_full::SimdShaSigma2            0      0.00%      0.26% # attempts to use FU when none available
system.switch_cpus.iq.fu_full::SimdShaSigma3            0      0.00%      0.26% # attempts to use FU when none available
system.switch_cpus.iq.fu_full::SimdPredAlu            0      0.00%      0.26% # attempts to use FU when none available
system.switch_cpus.iq.fu_full::MemRead          11305     96.40%     96.66% # attempts to use FU when none available
system.switch_cpus.iq.fu_full::MemWrite           392      3.34%    100.00% # attempts to use FU when none available
system.switch_cpus.iq.fu_full::FloatMemRead            0      0.00%    100.00% # attempts to use FU when none available
system.switch_cpus.iq.fu_full::FloatMemWrite            0      0.00%    100.00% # attempts to use FU when none available
system.switch_cpus.iq.fu_full::IprAccess            0      0.00%    100.00% # attempts to use FU when none available
system.switch_cpus.iq.fu_full::InstPrefetch            0      0.00%    100.00% # attempts to use FU when none available
system.switch_cpus.iq.int_alu_accesses        1109993                       # Number of integer alu accesses
system.switch_cpus.iq.int_inst_queue_reads      3866442                       # Number of integer instruction queue reads
system.switch_cpus.iq.int_inst_queue_wakeup_accesses      1081085                       # Number of integer instruction queue wakeup accesses
system.switch_cpus.iq.int_inst_queue_writes      1382311                       # Number of integer instruction queue writes
system.switch_cpus.iq.iqInstsAdded            1191167                       # Number of instructions added to the IQ (excludes non-spec)
system.switch_cpus.iq.iqInstsIssued           1098305                       # Number of instructions issued
system.switch_cpus.iq.iqNonSpecInstsAdded            6                       # Number of non-speculative instructions added to the IQ
system.switch_cpus.iq.iqSquashedInstsExamined       190948                       # Number of squashed instructions iterated over during squash; mainly for profiling
system.switch_cpus.iq.iqSquashedInstsIssued           78                       # Number of squashed instructions issued
system.switch_cpus.iq.iqSquashedNonSpecRemoved            3                       # Number of squashed non-spec instructions that were removed
system.switch_cpus.iq.iqSquashedOperandsExamined       163776                       # Number of squashed operands that are examined and possibly removed from graph
system.switch_cpus.iq.issued_per_cycle::samples      1658093                       # Number of insts issued each cycle
system.switch_cpus.iq.issued_per_cycle::mean     0.662390                       # Number of insts issued each cycle
system.switch_cpus.iq.issued_per_cycle::stdev     1.256542                       # Number of insts issued each cycle
system.switch_cpus.iq.issued_per_cycle::underflows            0      0.00%      0.00% # Number of insts issued each cycle
system.switch_cpus.iq.issued_per_cycle::0      1184773     71.45%     71.45% # Number of insts issued each cycle
system.switch_cpus.iq.issued_per_cycle::1       170113     10.26%     81.71% # Number of insts issued each cycle
system.switch_cpus.iq.issued_per_cycle::2       110355      6.66%     88.37% # Number of insts issued each cycle
system.switch_cpus.iq.issued_per_cycle::3       102156      6.16%     94.53% # Number of insts issued each cycle
system.switch_cpus.iq.issued_per_cycle::4        61038      3.68%     98.21% # Number of insts issued each cycle
system.switch_cpus.iq.issued_per_cycle::5        22143      1.34%     99.55% # Number of insts issued each cycle
system.switch_cpus.iq.issued_per_cycle::6         6489      0.39%     99.94% # Number of insts issued each cycle
system.switch_cpus.iq.issued_per_cycle::7          995      0.06%    100.00% # Number of insts issued each cycle
system.switch_cpus.iq.issued_per_cycle::8           31      0.00%    100.00% # Number of insts issued each cycle
system.switch_cpus.iq.issued_per_cycle::overflows            0      0.00%    100.00% # Number of insts issued each cycle
system.switch_cpus.iq.issued_per_cycle::min_value            0                       # Number of insts issued each cycle
system.switch_cpus.iq.issued_per_cycle::max_value            8                       # Number of insts issued each cycle
system.switch_cpus.iq.issued_per_cycle::total      1658093                       # Number of insts issued each cycle
system.switch_cpus.iq.rate                   0.657698                       # Inst issue rate
system.switch_cpus.iq.vec_alu_accesses             31                       # Number of vector alu accesses
system.switch_cpus.iq.vec_inst_queue_reads           62                       # Number of vector instruction queue reads
system.switch_cpus.iq.vec_inst_queue_wakeup_accesses           27                       # Number of vector instruction queue wakeup accesses
system.switch_cpus.iq.vec_inst_queue_writes           62                       # Number of vector instruction queue writes
system.switch_cpus.memDep0.conflictingLoads       184627                       # Number of conflicting loads.
system.switch_cpus.memDep0.conflictingStores        52535                       # Number of conflicting stores.
system.switch_cpus.memDep0.insertedLoads       485545                       # Number of loads inserted to the mem dependence unit.
system.switch_cpus.memDep0.insertedStores       116001                       # Number of stores inserted to the mem dependence unit.
system.switch_cpus.misc_regfile_reads         2605255                       # number of misc regfile reads
system.switch_cpus.misc_regfile_writes              9                       # number of misc regfile writes
system.switch_cpus.numCycles                  1669922                       # number of cpu cycles simulated
system.switch_cpus.numWorkItemsCompleted            0                       # number of work items this cpu completed
system.switch_cpus.numWorkItemsStarted              0                       # number of work items this cpu started
system.switch_cpus.timesIdled                      67                       # Number of times that the entire CPU went into an idle state and unscheduled itself
system.switch_cpus.vec_regfile_reads               21                       # number of vector regfile reads
system.switch_cpus.vec_regfile_writes              65                       # number of vector regfile writes
system.tol2bus.snoop_filter.hit_multi_requests            0                       # Number of requests hitting in the snoop filter with multiple (>1) holders of the requested data.
system.tol2bus.snoop_filter.hit_multi_snoops            0                       # Number of snoops hitting in the snoop filter with multiple (>1) holders of the requested data.
system.tol2bus.snoop_filter.hit_single_requests        23533                       # Number of requests hitting in the snoop filter with a single holder of the requested data.
system.tol2bus.snoop_filter.hit_single_snoops            0                       # Number of snoops hitting in the snoop filter with a single holder of the requested data.
system.tol2bus.snoop_filter.tot_requests        47414                       # Total number of requests made to the snoop filter.
system.tol2bus.snoop_filter.tot_snoops              0                       # Total number of snoops made to the snoop filter.
system.clk_domain.clock                          1000                       # Clock period in ticks
system.cpu.dcache.demand_hits::.cpu.data            9                       # number of demand (read+write) hits
system.cpu.dcache.demand_hits::.switch_cpus.data       308274                       # number of demand (read+write) hits
system.cpu.dcache.demand_hits::total           308283                       # number of demand (read+write) hits
system.cpu.dcache.overall_hits::.cpu.data            9                       # number of overall hits
system.cpu.dcache.overall_hits::.switch_cpus.data       308274                       # number of overall hits
system.cpu.dcache.overall_hits::total          308283                       # number of overall hits
system.cpu.dcache.demand_misses::.cpu.data            6                       # number of demand (read+write) misses
system.cpu.dcache.demand_misses::.switch_cpus.data        37800                       # number of demand (read+write) misses
system.cpu.dcache.demand_misses::total          37806                       # number of demand (read+write) misses
system.cpu.dcache.overall_misses::.cpu.data            6                       # number of overall misses
system.cpu.dcache.overall_misses::.switch_cpus.data        37800                       # number of overall misses
system.cpu.dcache.overall_misses::total         37806                       # number of overall misses
system.cpu.dcache.demand_miss_latency::.switch_cpus.data   1314723696                       # number of demand (read+write) miss cycles
system.cpu.dcache.demand_miss_latency::total   1314723696                       # number of demand (read+write) miss cycles
system.cpu.dcache.overall_miss_latency::.switch_cpus.data   1314723696                       # number of overall miss cycles
system.cpu.dcache.overall_miss_latency::total   1314723696                       # number of overall miss cycles
system.cpu.dcache.demand_accesses::.cpu.data           15                       # number of demand (read+write) accesses
system.cpu.dcache.demand_accesses::.switch_cpus.data       346074                       # number of demand (read+write) accesses
system.cpu.dcache.demand_accesses::total       346089                       # number of demand (read+write) accesses
system.cpu.dcache.overall_accesses::.cpu.data           15                       # number of overall (read+write) accesses
system.cpu.dcache.overall_accesses::.switch_cpus.data       346074                       # number of overall (read+write) accesses
system.cpu.dcache.overall_accesses::total       346089                       # number of overall (read+write) accesses
system.cpu.dcache.demand_miss_rate::.cpu.data     0.400000                       # miss rate for demand accesses
system.cpu.dcache.demand_miss_rate::.switch_cpus.data     0.109225                       # miss rate for demand accesses
system.cpu.dcache.demand_miss_rate::total     0.109238                       # miss rate for demand accesses
system.cpu.dcache.overall_miss_rate::.cpu.data     0.400000                       # miss rate for overall accesses
system.cpu.dcache.overall_miss_rate::.switch_cpus.data     0.109225                       # miss rate for overall accesses
system.cpu.dcache.overall_miss_rate::total     0.109238                       # miss rate for overall accesses
system.cpu.dcache.demand_avg_miss_latency::.switch_cpus.data 34781.050159                       # average overall miss latency
system.cpu.dcache.demand_avg_miss_latency::total 34775.530233                       # average overall miss latency
system.cpu.dcache.overall_avg_miss_latency::.switch_cpus.data 34781.050159                       # average overall miss latency
system.cpu.dcache.overall_avg_miss_latency::total 34775.530233                       # average overall miss latency
system.cpu.dcache.blocked_cycles::no_mshrs         8497                       # number of cycles access was blocked
system.cpu.dcache.blocked_cycles::no_targets            0                       # number of cycles access was blocked
system.cpu.dcache.blocked::no_mshrs               421                       # number of cycles access was blocked
system.cpu.dcache.blocked::no_targets               0                       # number of cycles access was blocked
system.cpu.dcache.avg_blocked_cycles::no_mshrs    20.182898                       # average number of cycles each access was blocked
system.cpu.dcache.avg_blocked_cycles::no_targets          nan                       # average number of cycles each access was blocked
system.cpu.dcache.writebacks::.writebacks         2711                       # number of writebacks
system.cpu.dcache.writebacks::total              2711                       # number of writebacks
system.cpu.dcache.demand_mshr_hits::.switch_cpus.data        14017                       # number of demand (read+write) MSHR hits
system.cpu.dcache.demand_mshr_hits::total        14017                       # number of demand (read+write) MSHR hits
system.cpu.dcache.overall_mshr_hits::.switch_cpus.data        14017                       # number of overall MSHR hits
system.cpu.dcache.overall_mshr_hits::total        14017                       # number of overall MSHR hits
system.cpu.dcache.demand_mshr_misses::.switch_cpus.data        23783                       # number of demand (read+write) MSHR misses
system.cpu.dcache.demand_mshr_misses::total        23783                       # number of demand (read+write) MSHR misses
system.cpu.dcache.overall_mshr_misses::.switch_cpus.data        23783                       # number of overall MSHR misses
system.cpu.dcache.overall_mshr_misses::total        23783                       # number of overall MSHR misses
system.cpu.dcache.demand_mshr_miss_latency::.switch_cpus.data    578281112                       # number of demand (read+write) MSHR miss cycles
system.cpu.dcache.demand_mshr_miss_latency::total    578281112                       # number of demand (read+write) MSHR miss cycles
system.cpu.dcache.overall_mshr_miss_latency::.switch_cpus.data    578281112                       # number of overall MSHR miss cycles
system.cpu.dcache.overall_mshr_miss_latency::total    578281112                       # number of overall MSHR miss cycles
system.cpu.dcache.demand_mshr_miss_rate::.switch_cpus.data     0.068722                       # mshr miss rate for demand accesses
system.cpu.dcache.demand_mshr_miss_rate::total     0.068719                       # mshr miss rate for demand accesses
system.cpu.dcache.overall_mshr_miss_rate::.switch_cpus.data     0.068722                       # mshr miss rate for overall accesses
system.cpu.dcache.overall_mshr_miss_rate::total     0.068719                       # mshr miss rate for overall accesses
system.cpu.dcache.demand_avg_mshr_miss_latency::.switch_cpus.data 24314.893495                       # average overall mshr miss latency
system.cpu.dcache.demand_avg_mshr_miss_latency::total 24314.893495                       # average overall mshr miss latency
system.cpu.dcache.overall_avg_mshr_miss_latency::.switch_cpus.data 24314.893495                       # average overall mshr miss latency
system.cpu.dcache.overall_avg_mshr_miss_latency::total 24314.893495                       # average overall mshr miss latency
system.cpu.dcache.replacements                  23533                       # number of replacements
system.cpu.dcache.ReadReq_hits::.cpu.data            7                       # number of ReadReq hits
system.cpu.dcache.ReadReq_hits::.switch_cpus.data       213725                       # number of ReadReq hits
system.cpu.dcache.ReadReq_hits::total          213732                       # number of ReadReq hits
system.cpu.dcache.ReadReq_misses::.cpu.data            5                       # number of ReadReq misses
system.cpu.dcache.ReadReq_misses::.switch_cpus.data        34208                       # number of ReadReq misses
system.cpu.dcache.ReadReq_misses::total         34213                       # number of ReadReq misses
system.cpu.dcache.ReadReq_miss_latency::.switch_cpus.data   1163811636                       # number of ReadReq miss cycles
system.cpu.dcache.ReadReq_miss_latency::total   1163811636                       # number of ReadReq miss cycles
system.cpu.dcache.ReadReq_accesses::.cpu.data           12                       # number of ReadReq accesses(hits+misses)
system.cpu.dcache.ReadReq_accesses::.switch_cpus.data       247933                       # number of ReadReq accesses(hits+misses)
system.cpu.dcache.ReadReq_accesses::total       247945                       # number of ReadReq accesses(hits+misses)
system.cpu.dcache.ReadReq_miss_rate::.cpu.data     0.416667                       # miss rate for ReadReq accesses
system.cpu.dcache.ReadReq_miss_rate::.switch_cpus.data     0.137973                       # miss rate for ReadReq accesses
system.cpu.dcache.ReadReq_miss_rate::total     0.137986                       # miss rate for ReadReq accesses
system.cpu.dcache.ReadReq_avg_miss_latency::.switch_cpus.data 34021.621726                       # average ReadReq miss latency
system.cpu.dcache.ReadReq_avg_miss_latency::total 34016.649695                       # average ReadReq miss latency
system.cpu.dcache.ReadReq_mshr_hits::.switch_cpus.data        11009                       # number of ReadReq MSHR hits
system.cpu.dcache.ReadReq_mshr_hits::total        11009                       # number of ReadReq MSHR hits
system.cpu.dcache.ReadReq_mshr_misses::.switch_cpus.data        23199                       # number of ReadReq MSHR misses
system.cpu.dcache.ReadReq_mshr_misses::total        23199                       # number of ReadReq MSHR misses
system.cpu.dcache.ReadReq_mshr_miss_latency::.switch_cpus.data    557827460                       # number of ReadReq MSHR miss cycles
system.cpu.dcache.ReadReq_mshr_miss_latency::total    557827460                       # number of ReadReq MSHR miss cycles
system.cpu.dcache.ReadReq_mshr_miss_rate::.switch_cpus.data     0.093570                       # mshr miss rate for ReadReq accesses
system.cpu.dcache.ReadReq_mshr_miss_rate::total     0.093565                       # mshr miss rate for ReadReq accesses
system.cpu.dcache.ReadReq_avg_mshr_miss_latency::.switch_cpus.data 24045.323505                       # average ReadReq mshr miss latency
system.cpu.dcache.ReadReq_avg_mshr_miss_latency::total 24045.323505                       # average ReadReq mshr miss latency
system.cpu.dcache.WriteReq_hits::.cpu.data            2                       # number of WriteReq hits
system.cpu.dcache.WriteReq_hits::.switch_cpus.data        94549                       # number of WriteReq hits
system.cpu.dcache.WriteReq_hits::total          94551                       # number of WriteReq hits
system.cpu.dcache.WriteReq_misses::.cpu.data            1                       # number of WriteReq misses
system.cpu.dcache.WriteReq_misses::.switch_cpus.data         3592                       # number of WriteReq misses
system.cpu.dcache.WriteReq_misses::total         3593                       # number of WriteReq misses
system.cpu.dcache.WriteReq_miss_latency::.switch_cpus.data    150912060                       # number of WriteReq miss cycles
system.cpu.dcache.WriteReq_miss_latency::total    150912060                       # number of WriteReq miss cycles
system.cpu.dcache.WriteReq_accesses::.cpu.data            3                       # number of WriteReq accesses(hits+misses)
system.cpu.dcache.WriteReq_accesses::.switch_cpus.data        98141                       # number of WriteReq accesses(hits+misses)
system.cpu.dcache.WriteReq_accesses::total        98144                       # number of WriteReq accesses(hits+misses)
system.cpu.dcache.WriteReq_miss_rate::.cpu.data     0.333333                       # miss rate for WriteReq accesses
system.cpu.dcache.WriteReq_miss_rate::.switch_cpus.data     0.036600                       # miss rate for WriteReq accesses
system.cpu.dcache.WriteReq_miss_rate::total     0.036609                       # miss rate for WriteReq accesses
system.cpu.dcache.WriteReq_avg_miss_latency::.switch_cpus.data 42013.379733                       # average WriteReq miss latency
system.cpu.dcache.WriteReq_avg_miss_latency::total 42001.686613                       # average WriteReq miss latency
system.cpu.dcache.WriteReq_mshr_hits::.switch_cpus.data         3008                       # number of WriteReq MSHR hits
system.cpu.dcache.WriteReq_mshr_hits::total         3008                       # number of WriteReq MSHR hits
system.cpu.dcache.WriteReq_mshr_misses::.switch_cpus.data          584                       # number of WriteReq MSHR misses
system.cpu.dcache.WriteReq_mshr_misses::total          584                       # number of WriteReq MSHR misses
system.cpu.dcache.WriteReq_mshr_miss_latency::.switch_cpus.data     20453652                       # number of WriteReq MSHR miss cycles
system.cpu.dcache.WriteReq_mshr_miss_latency::total     20453652                       # number of WriteReq MSHR miss cycles
system.cpu.dcache.WriteReq_mshr_miss_rate::.switch_cpus.data     0.005951                       # mshr miss rate for WriteReq accesses
system.cpu.dcache.WriteReq_mshr_miss_rate::total     0.005950                       # mshr miss rate for WriteReq accesses
system.cpu.dcache.WriteReq_avg_mshr_miss_latency::.switch_cpus.data 35023.376712                       # average WriteReq mshr miss latency
system.cpu.dcache.WriteReq_avg_mshr_miss_latency::total 35023.376712                       # average WriteReq mshr miss latency
system.cpu.dcache.power_state.pwrStateResidencyTicks::UNDEFINED 578325495430                       # Cumulative time (in ticks) in various power states
system.cpu.dcache.tags.tagsinuse           253.685063                       # Cycle average of tags in use
system.cpu.dcache.tags.total_refs              204279                       # Total number of references to valid blocks.
system.cpu.dcache.tags.sampled_refs             23533                       # Sample count of references to valid blocks.
system.cpu.dcache.tags.avg_refs              8.680534                       # Average number of references to valid blocks.
system.cpu.dcache.tags.warmup_cycle      577786100934                       # Cycle when the warmup percentage was hit.
system.cpu.dcache.tags.occ_blocks::.cpu.data     2.947067                       # Average occupied blocks per requestor
system.cpu.dcache.tags.occ_blocks::.switch_cpus.data   250.737996                       # Average occupied blocks per requestor
system.cpu.dcache.tags.occ_percent::.cpu.data     0.011512                       # Average percentage of cache occupancy
system.cpu.dcache.tags.occ_percent::.switch_cpus.data     0.979445                       # Average percentage of cache occupancy
system.cpu.dcache.tags.occ_percent::total     0.990957                       # Average percentage of cache occupancy
system.cpu.dcache.tags.occ_task_id_blocks::1024          256                       # Occupied blocks per task id
system.cpu.dcache.tags.age_task_id_blocks_1024::0          150                       # Occupied blocks per task id
system.cpu.dcache.tags.age_task_id_blocks_1024::1          105                       # Occupied blocks per task id
system.cpu.dcache.tags.age_task_id_blocks_1024::2            1                       # Occupied blocks per task id
system.cpu.dcache.tags.occ_task_id_percent::1024            1                       # Percentage of cache occupancy per task id
system.cpu.dcache.tags.tag_accesses           2792501                       # Number of tag accesses
system.cpu.dcache.tags.data_accesses          2792501                       # Number of data accesses
system.cpu.dcache.tags.power_state.pwrStateResidencyTicks::UNDEFINED 578325495430                       # Cumulative time (in ticks) in various power states
system.cpu.dtb.instHits                             0                       # ITB inst hits
system.cpu.dtb.instMisses                           0                       # ITB inst misses
system.cpu.dtb.readHits                             0                       # DTB read hits
system.cpu.dtb.readMisses                           0                       # DTB read misses
system.cpu.dtb.writeHits                            0                       # DTB write hits
system.cpu.dtb.writeMisses                          0                       # DTB write misses
system.cpu.dtb.inserts                              0                       # Number of times an entry is inserted into the TLB
system.cpu.dtb.flushTlb                             2                       # Number of times complete TLB was flushed
system.cpu.dtb.flushTlbMva                          0                       # Number of times TLB was flushed by MVA
system.cpu.dtb.flushTlbMvaAsid                      0                       # Number of times TLB was flushed by MVA & ASID
system.cpu.dtb.flushTlbAsid                         0                       # Number of times TLB was flushed by ASID
system.cpu.dtb.flushedEntries                       0                       # Number of entries that have been flushed from TLB
system.cpu.dtb.alignFaults                          0                       # Number of TLB faults due to alignment restrictions
system.cpu.dtb.prefetchFaults                       0                       # Number of TLB faults due to prefetch
system.cpu.dtb.domainFaults                         0                       # Number of TLB faults due to domain restrictions
system.cpu.dtb.permsFaults                          0                       # Number of TLB faults due to permissions restrictions
system.cpu.dtb.readAccesses                         0                       # DTB read accesses
system.cpu.dtb.writeAccesses                        0                       # DTB write accesses
system.cpu.dtb.instAccesses                         0                       # ITB inst accesses
system.cpu.dtb.hits                                 0                       # Total TLB (inst and data) hits
system.cpu.dtb.misses                               0                       # Total TLB (inst and data) misses
system.cpu.dtb.accesses                             0                       # Total TLB (inst and data) accesses
system.cpu.dtb.stage2_mmu.stage2_tlb.instHits            0                       # ITB inst hits
system.cpu.dtb.stage2_mmu.stage2_tlb.instMisses            0                       # ITB inst misses
system.cpu.dtb.stage2_mmu.stage2_tlb.readHits            0                       # DTB read hits
system.cpu.dtb.stage2_mmu.stage2_tlb.readMisses            0                       # DTB read misses
system.cpu.dtb.stage2_mmu.stage2_tlb.writeHits            0                       # DTB write hits
system.cpu.dtb.stage2_mmu.stage2_tlb.writeMisses            0                       # DTB write misses
system.cpu.dtb.stage2_mmu.stage2_tlb.inserts            0                       # Number of times an entry is inserted into the TLB
system.cpu.dtb.stage2_mmu.stage2_tlb.flushTlb            0                       # Number of times complete TLB was flushed
system.cpu.dtb.stage2_mmu.stage2_tlb.flushTlbMva            0                       # Number of times TLB was flushed by MVA
system.cpu.dtb.stage2_mmu.stage2_tlb.flushTlbMvaAsid            0                       # Number of times TLB was flushed by MVA & ASID
system.cpu.dtb.stage2_mmu.stage2_tlb.flushTlbAsid            0                       # Number of times TLB was flushed by ASID
system.cpu.dtb.stage2_mmu.stage2_tlb.flushedEntries            0                       # Number of entries that have been flushed from TLB
system.cpu.dtb.stage2_mmu.stage2_tlb.alignFaults            0                       # Number of TLB faults due to alignment restrictions
system.cpu.dtb.stage2_mmu.stage2_tlb.prefetchFaults            0                       # Number of TLB faults due to prefetch
system.cpu.dtb.stage2_mmu.stage2_tlb.domainFaults            0                       # Number of TLB faults due to domain restrictions
system.cpu.dtb.stage2_mmu.stage2_tlb.permsFaults            0                       # Number of TLB faults due to permissions restrictions
system.cpu.dtb.stage2_mmu.stage2_tlb.readAccesses            0                       # DTB read accesses
system.cpu.dtb.stage2_mmu.stage2_tlb.writeAccesses            0                       # DTB write accesses
system.cpu.dtb.stage2_mmu.stage2_tlb.instAccesses            0                       # ITB inst accesses
system.cpu.dtb.stage2_mmu.stage2_tlb.hits            0                       # Total TLB (inst and data) hits
system.cpu.dtb.stage2_mmu.stage2_tlb.misses            0                       # Total TLB (inst and data) misses
system.cpu.dtb.stage2_mmu.stage2_tlb.accesses            0                       # Total TLB (inst and data) accesses
system.cpu.dtb.stage2_mmu.stage2_tlb.walker.walks            0                       # Table walker walks requested
system.cpu.dtb.stage2_mmu.stage2_tlb.walker.requestOrigin_Requested::Data            0                       # Table walker requests started/completed, data/inst
system.cpu.dtb.stage2_mmu.stage2_tlb.walker.requestOrigin_Requested::Inst            0                       # Table walker requests started/completed, data/inst
system.cpu.dtb.stage2_mmu.stage2_tlb.walker.requestOrigin_Requested::total            0                       # Table walker requests started/completed, data/inst
system.cpu.dtb.stage2_mmu.stage2_tlb.walker.requestOrigin_Completed::Data            0                       # Table walker requests started/completed, data/inst
system.cpu.dtb.stage2_mmu.stage2_tlb.walker.requestOrigin_Completed::Inst            0                       # Table walker requests started/completed, data/inst
system.cpu.dtb.stage2_mmu.stage2_tlb.walker.requestOrigin_Completed::total            0                       # Table walker requests started/completed, data/inst
system.cpu.dtb.stage2_mmu.stage2_tlb.walker.requestOrigin::total            0                       # Table walker requests started/completed, data/inst
system.cpu.dtb.stage2_mmu.stage2_tlb.walker.power_state.pwrStateResidencyTicks::UNDEFINED 578325495430                       # Cumulative time (in ticks) in various power states
system.cpu.dtb.walker.walks                         0                       # Table walker walks requested
system.cpu.dtb.walker.requestOrigin_Requested::Data            0                       # Table walker requests started/completed, data/inst
system.cpu.dtb.walker.requestOrigin_Requested::Inst            0                       # Table walker requests started/completed, data/inst
system.cpu.dtb.walker.requestOrigin_Requested::total            0                       # Table walker requests started/completed, data/inst
system.cpu.dtb.walker.requestOrigin_Completed::Data            0                       # Table walker requests started/completed, data/inst
system.cpu.dtb.walker.requestOrigin_Completed::Inst            0                       # Table walker requests started/completed, data/inst
system.cpu.dtb.walker.requestOrigin_Completed::total            0                       # Table walker requests started/completed, data/inst
system.cpu.dtb.walker.requestOrigin::total            0                       # Table walker requests started/completed, data/inst
system.cpu.dtb.walker.power_state.pwrStateResidencyTicks::UNDEFINED 578325495430                       # Cumulative time (in ticks) in various power states
system.cpu.icache.demand_hits::.cpu.inst           28                       # number of demand (read+write) hits
system.cpu.icache.demand_hits::.switch_cpus.inst       189785                       # number of demand (read+write) hits
system.cpu.icache.demand_hits::total           189813                       # number of demand (read+write) hits
system.cpu.icache.overall_hits::.cpu.inst           28                       # number of overall hits
system.cpu.icache.overall_hits::.switch_cpus.inst       189785                       # number of overall hits
system.cpu.icache.overall_hits::total          189813                       # number of overall hits
system.cpu.icache.demand_misses::.cpu.inst            2                       # number of demand (read+write) misses
system.cpu.icache.demand_misses::.switch_cpus.inst          126                       # number of demand (read+write) misses
system.cpu.icache.demand_misses::total            128                       # number of demand (read+write) misses
system.cpu.icache.overall_misses::.cpu.inst            2                       # number of overall misses
system.cpu.icache.overall_misses::.switch_cpus.inst          126                       # number of overall misses
system.cpu.icache.overall_misses::total           128                       # number of overall misses
system.cpu.icache.demand_miss_latency::.switch_cpus.inst      9163510                       # number of demand (read+write) miss cycles
system.cpu.icache.demand_miss_latency::total      9163510                       # number of demand (read+write) miss cycles
system.cpu.icache.overall_miss_latency::.switch_cpus.inst      9163510                       # number of overall miss cycles
system.cpu.icache.overall_miss_latency::total      9163510                       # number of overall miss cycles
system.cpu.icache.demand_accesses::.cpu.inst           30                       # number of demand (read+write) accesses
system.cpu.icache.demand_accesses::.switch_cpus.inst       189911                       # number of demand (read+write) accesses
system.cpu.icache.demand_accesses::total       189941                       # number of demand (read+write) accesses
system.cpu.icache.overall_accesses::.cpu.inst           30                       # number of overall (read+write) accesses
system.cpu.icache.overall_accesses::.switch_cpus.inst       189911                       # number of overall (read+write) accesses
system.cpu.icache.overall_accesses::total       189941                       # number of overall (read+write) accesses
system.cpu.icache.demand_miss_rate::.cpu.inst     0.066667                       # miss rate for demand accesses
system.cpu.icache.demand_miss_rate::.switch_cpus.inst     0.000663                       # miss rate for demand accesses
system.cpu.icache.demand_miss_rate::total     0.000674                       # miss rate for demand accesses
system.cpu.icache.overall_miss_rate::.cpu.inst     0.066667                       # miss rate for overall accesses
system.cpu.icache.overall_miss_rate::.switch_cpus.inst     0.000663                       # miss rate for overall accesses
system.cpu.icache.overall_miss_rate::total     0.000674                       # miss rate for overall accesses
system.cpu.icache.demand_avg_miss_latency::.switch_cpus.inst 72726.269841                       # average overall miss latency
system.cpu.icache.demand_avg_miss_latency::total 71589.921875                       # average overall miss latency
system.cpu.icache.overall_avg_miss_latency::.switch_cpus.inst 72726.269841                       # average overall miss latency
system.cpu.icache.overall_avg_miss_latency::total 71589.921875                       # average overall miss latency
system.cpu.icache.blocked_cycles::no_mshrs          468                       # number of cycles access was blocked
system.cpu.icache.blocked_cycles::no_targets            0                       # number of cycles access was blocked
system.cpu.icache.blocked::no_mshrs                 4                       # number of cycles access was blocked
system.cpu.icache.blocked::no_targets               0                       # number of cycles access was blocked
system.cpu.icache.avg_blocked_cycles::no_mshrs          117                       # average number of cycles each access was blocked
system.cpu.icache.avg_blocked_cycles::no_targets          nan                       # average number of cycles each access was blocked
system.cpu.icache.demand_mshr_hits::.switch_cpus.inst           36                       # number of demand (read+write) MSHR hits
system.cpu.icache.demand_mshr_hits::total           36                       # number of demand (read+write) MSHR hits
system.cpu.icache.overall_mshr_hits::.switch_cpus.inst           36                       # number of overall MSHR hits
system.cpu.icache.overall_mshr_hits::total           36                       # number of overall MSHR hits
system.cpu.icache.demand_mshr_misses::.switch_cpus.inst           90                       # number of demand (read+write) MSHR misses
system.cpu.icache.demand_mshr_misses::total           90                       # number of demand (read+write) MSHR misses
system.cpu.icache.overall_mshr_misses::.switch_cpus.inst           90                       # number of overall MSHR misses
system.cpu.icache.overall_mshr_misses::total           90                       # number of overall MSHR misses
system.cpu.icache.demand_mshr_miss_latency::.switch_cpus.inst      7141530                       # number of demand (read+write) MSHR miss cycles
system.cpu.icache.demand_mshr_miss_latency::total      7141530                       # number of demand (read+write) MSHR miss cycles
system.cpu.icache.overall_mshr_miss_latency::.switch_cpus.inst      7141530                       # number of overall MSHR miss cycles
system.cpu.icache.overall_mshr_miss_latency::total      7141530                       # number of overall MSHR miss cycles
system.cpu.icache.demand_mshr_miss_rate::.switch_cpus.inst     0.000474                       # mshr miss rate for demand accesses
system.cpu.icache.demand_mshr_miss_rate::total     0.000474                       # mshr miss rate for demand accesses
system.cpu.icache.overall_mshr_miss_rate::.switch_cpus.inst     0.000474                       # mshr miss rate for overall accesses
system.cpu.icache.overall_mshr_miss_rate::total     0.000474                       # mshr miss rate for overall accesses
system.cpu.icache.demand_avg_mshr_miss_latency::.switch_cpus.inst 79350.333333                       # average overall mshr miss latency
system.cpu.icache.demand_avg_mshr_miss_latency::total 79350.333333                       # average overall mshr miss latency
system.cpu.icache.overall_avg_mshr_miss_latency::.switch_cpus.inst 79350.333333                       # average overall mshr miss latency
system.cpu.icache.overall_avg_mshr_miss_latency::total 79350.333333                       # average overall mshr miss latency
system.cpu.icache.replacements                      0                       # number of replacements
system.cpu.icache.ReadReq_hits::.cpu.inst           28                       # number of ReadReq hits
system.cpu.icache.ReadReq_hits::.switch_cpus.inst       189785                       # number of ReadReq hits
system.cpu.icache.ReadReq_hits::total          189813                       # number of ReadReq hits
system.cpu.icache.ReadReq_misses::.cpu.inst            2                       # number of ReadReq misses
system.cpu.icache.ReadReq_misses::.switch_cpus.inst          126                       # number of ReadReq misses
system.cpu.icache.ReadReq_misses::total           128                       # number of ReadReq misses
system.cpu.icache.ReadReq_miss_latency::.switch_cpus.inst      9163510                       # number of ReadReq miss cycles
system.cpu.icache.ReadReq_miss_latency::total      9163510                       # number of ReadReq miss cycles
system.cpu.icache.ReadReq_accesses::.cpu.inst           30                       # number of ReadReq accesses(hits+misses)
system.cpu.icache.ReadReq_accesses::.switch_cpus.inst       189911                       # number of ReadReq accesses(hits+misses)
system.cpu.icache.ReadReq_accesses::total       189941                       # number of ReadReq accesses(hits+misses)
system.cpu.icache.ReadReq_miss_rate::.cpu.inst     0.066667                       # miss rate for ReadReq accesses
system.cpu.icache.ReadReq_miss_rate::.switch_cpus.inst     0.000663                       # miss rate for ReadReq accesses
system.cpu.icache.ReadReq_miss_rate::total     0.000674                       # miss rate for ReadReq accesses
system.cpu.icache.ReadReq_avg_miss_latency::.switch_cpus.inst 72726.269841                       # average ReadReq miss latency
system.cpu.icache.ReadReq_avg_miss_latency::total 71589.921875                       # average ReadReq miss latency
system.cpu.icache.ReadReq_mshr_hits::.switch_cpus.inst           36                       # number of ReadReq MSHR hits
system.cpu.icache.ReadReq_mshr_hits::total           36                       # number of ReadReq MSHR hits
system.cpu.icache.ReadReq_mshr_misses::.switch_cpus.inst           90                       # number of ReadReq MSHR misses
system.cpu.icache.ReadReq_mshr_misses::total           90                       # number of ReadReq MSHR misses
system.cpu.icache.ReadReq_mshr_miss_latency::.switch_cpus.inst      7141530                       # number of ReadReq MSHR miss cycles
system.cpu.icache.ReadReq_mshr_miss_latency::total      7141530                       # number of ReadReq MSHR miss cycles
system.cpu.icache.ReadReq_mshr_miss_rate::.switch_cpus.inst     0.000474                       # mshr miss rate for ReadReq accesses
system.cpu.icache.ReadReq_mshr_miss_rate::total     0.000474                       # mshr miss rate for ReadReq accesses
system.cpu.icache.ReadReq_avg_mshr_miss_latency::.switch_cpus.inst 79350.333333                       # average ReadReq mshr miss latency
system.cpu.icache.ReadReq_avg_mshr_miss_latency::total 79350.333333                       # average ReadReq mshr miss latency
system.cpu.icache.power_state.pwrStateResidencyTicks::UNDEFINED 578325495430                       # Cumulative time (in ticks) in various power states
system.cpu.icache.tags.tagsinuse            14.853786                       # Cycle average of tags in use
system.cpu.icache.tags.total_refs                   0                       # Total number of references to valid blocks.
system.cpu.icache.tags.sampled_refs                 0                       # Sample count of references to valid blocks.
system.cpu.icache.tags.avg_refs                   nan                       # Average number of references to valid blocks.
system.cpu.icache.tags.warmup_cycle      577786100934                       # Cycle when the warmup percentage was hit.
system.cpu.icache.tags.occ_blocks::.cpu.inst     1.999993                       # Average occupied blocks per requestor
system.cpu.icache.tags.occ_blocks::.switch_cpus.inst    12.853793                       # Average occupied blocks per requestor
system.cpu.icache.tags.occ_percent::.cpu.inst     0.003906                       # Average percentage of cache occupancy
system.cpu.icache.tags.occ_percent::.switch_cpus.inst     0.025105                       # Average percentage of cache occupancy
system.cpu.icache.tags.occ_percent::total     0.029011                       # Average percentage of cache occupancy
system.cpu.icache.tags.occ_task_id_blocks::1024           92                       # Occupied blocks per task id
system.cpu.icache.tags.age_task_id_blocks_1024::1           83                       # Occupied blocks per task id
system.cpu.icache.tags.age_task_id_blocks_1024::2            9                       # Occupied blocks per task id
system.cpu.icache.tags.occ_task_id_percent::1024     0.179688                       # Percentage of cache occupancy per task id
system.cpu.icache.tags.tag_accesses           1519620                       # Number of tag accesses
system.cpu.icache.tags.data_accesses          1519620                       # Number of data accesses
system.cpu.icache.tags.power_state.pwrStateResidencyTicks::UNDEFINED 578325495430                       # Cumulative time (in ticks) in various power states
system.cpu.itb.instHits                             0                       # ITB inst hits
system.cpu.itb.instMisses                           0                       # ITB inst misses
system.cpu.itb.readHits                             0                       # DTB read hits
system.cpu.itb.readMisses                           0                       # DTB read misses
system.cpu.itb.writeHits                            0                       # DTB write hits
system.cpu.itb.writeMisses                          0                       # DTB write misses
system.cpu.itb.inserts                              0                       # Number of times an entry is inserted into the TLB
system.cpu.itb.flushTlb                             2                       # Number of times complete TLB was flushed
system.cpu.itb.flushTlbMva                          0                       # Number of times TLB was flushed by MVA
system.cpu.itb.flushTlbMvaAsid                      0                       # Number of times TLB was flushed by MVA & ASID
system.cpu.itb.flushTlbAsid                         0                       # Number of times TLB was flushed by ASID
system.cpu.itb.flushedEntries                       0                       # Number of entries that have been flushed from TLB
system.cpu.itb.alignFaults                          0                       # Number of TLB faults due to alignment restrictions
system.cpu.itb.prefetchFaults                       0                       # Number of TLB faults due to prefetch
system.cpu.itb.domainFaults                         0                       # Number of TLB faults due to domain restrictions
system.cpu.itb.permsFaults                          0                       # Number of TLB faults due to permissions restrictions
system.cpu.itb.readAccesses                         0                       # DTB read accesses
system.cpu.itb.writeAccesses                        0                       # DTB write accesses
system.cpu.itb.instAccesses                         0                       # ITB inst accesses
system.cpu.itb.hits                                 0                       # Total TLB (inst and data) hits
system.cpu.itb.misses                               0                       # Total TLB (inst and data) misses
system.cpu.itb.accesses                             0                       # Total TLB (inst and data) accesses
system.cpu.itb.stage2_mmu.stage2_tlb.instHits            0                       # ITB inst hits
system.cpu.itb.stage2_mmu.stage2_tlb.instMisses            0                       # ITB inst misses
system.cpu.itb.stage2_mmu.stage2_tlb.readHits            0                       # DTB read hits
system.cpu.itb.stage2_mmu.stage2_tlb.readMisses            0                       # DTB read misses
system.cpu.itb.stage2_mmu.stage2_tlb.writeHits            0                       # DTB write hits
system.cpu.itb.stage2_mmu.stage2_tlb.writeMisses            0                       # DTB write misses
system.cpu.itb.stage2_mmu.stage2_tlb.inserts            0                       # Number of times an entry is inserted into the TLB
system.cpu.itb.stage2_mmu.stage2_tlb.flushTlb            0                       # Number of times complete TLB was flushed
system.cpu.itb.stage2_mmu.stage2_tlb.flushTlbMva            0                       # Number of times TLB was flushed by MVA
system.cpu.itb.stage2_mmu.stage2_tlb.flushTlbMvaAsid            0                       # Number of times TLB was flushed by MVA & ASID
system.cpu.itb.stage2_mmu.stage2_tlb.flushTlbAsid            0                       # Number of times TLB was flushed by ASID
system.cpu.itb.stage2_mmu.stage2_tlb.flushedEntries            0                       # Number of entries that have been flushed from TLB
system.cpu.itb.stage2_mmu.stage2_tlb.alignFaults            0                       # Number of TLB faults due to alignment restrictions
system.cpu.itb.stage2_mmu.stage2_tlb.prefetchFaults            0                       # Number of TLB faults due to prefetch
system.cpu.itb.stage2_mmu.stage2_tlb.domainFaults            0                       # Number of TLB faults due to domain restrictions
system.cpu.itb.stage2_mmu.stage2_tlb.permsFaults            0                       # Number of TLB faults due to permissions restrictions
system.cpu.itb.stage2_mmu.stage2_tlb.readAccesses            0                       # DTB read accesses
system.cpu.itb.stage2_mmu.stage2_tlb.writeAccesses            0                       # DTB write accesses
system.cpu.itb.stage2_mmu.stage2_tlb.instAccesses            0                       # ITB inst accesses
system.cpu.itb.stage2_mmu.stage2_tlb.hits            0                       # Total TLB (inst and data) hits
system.cpu.itb.stage2_mmu.stage2_tlb.misses            0                       # Total TLB (inst and data) misses
system.cpu.itb.stage2_mmu.stage2_tlb.accesses            0                       # Total TLB (inst and data) accesses
system.cpu.itb.stage2_mmu.stage2_tlb.walker.walks            0                       # Table walker walks requested
system.cpu.itb.stage2_mmu.stage2_tlb.walker.requestOrigin_Requested::Data            0                       # Table walker requests started/completed, data/inst
system.cpu.itb.stage2_mmu.stage2_tlb.walker.requestOrigin_Requested::Inst            0                       # Table walker requests started/completed, data/inst
system.cpu.itb.stage2_mmu.stage2_tlb.walker.requestOrigin_Requested::total            0                       # Table walker requests started/completed, data/inst
system.cpu.itb.stage2_mmu.stage2_tlb.walker.requestOrigin_Completed::Data            0                       # Table walker requests started/completed, data/inst
system.cpu.itb.stage2_mmu.stage2_tlb.walker.requestOrigin_Completed::Inst            0                       # Table walker requests started/completed, data/inst
system.cpu.itb.stage2_mmu.stage2_tlb.walker.requestOrigin_Completed::total            0                       # Table walker requests started/completed, data/inst
system.cpu.itb.stage2_mmu.stage2_tlb.walker.requestOrigin::total            0                       # Table walker requests started/completed, data/inst
system.cpu.itb.stage2_mmu.stage2_tlb.walker.power_state.pwrStateResidencyTicks::UNDEFINED 578325495430                       # Cumulative time (in ticks) in various power states
system.cpu.itb.walker.walks                         0                       # Table walker walks requested
system.cpu.itb.walker.requestOrigin_Requested::Data            0                       # Table walker requests started/completed, data/inst
system.cpu.itb.walker.requestOrigin_Requested::Inst            0                       # Table walker requests started/completed, data/inst
system.cpu.itb.walker.requestOrigin_Requested::total            0                       # Table walker requests started/completed, data/inst
system.cpu.itb.walker.requestOrigin_Completed::Data            0                       # Table walker requests started/completed, data/inst
system.cpu.itb.walker.requestOrigin_Completed::Inst            0                       # Table walker requests started/completed, data/inst
system.cpu.itb.walker.requestOrigin_Completed::total            0                       # Table walker requests started/completed, data/inst
system.cpu.itb.walker.requestOrigin::total            0                       # Table walker requests started/completed, data/inst
system.cpu.itb.walker.power_state.pwrStateResidencyTicks::UNDEFINED 578325495430                       # Cumulative time (in ticks) in various power states
system.cpu.power_state.numTransitions               1                       # Number of power state transitions
system.cpu.power_state.pwrStateResidencyTicks::ON 577786110400                       # Cumulative time (in ticks) in various power states
system.cpu.power_state.pwrStateResidencyTicks::OFF    539385030                       # Cumulative time (in ticks) in various power states
system.cpu.thread_0.numInsts                        0                       # Number of Instructions committed
system.cpu.thread_0.numOps                          0                       # Number of Ops committed
system.cpu.thread_0.numMemRefs                      0                       # Number of Memory References
system.cpu_clk_domain.clock                       323                       # Clock period in ticks
system.cpu_voltage_domain.voltage                   1                       # Voltage in Volts
system.l2.demand_hits::.switch_cpus.data        18651                       # number of demand (read+write) hits
system.l2.demand_hits::total                    18651                       # number of demand (read+write) hits
[...]
system.switch_cpus.dtb.walker.requestOrigin_Completed::Data            0                       # Table walker requests started/completed, data/inst
system.switch_cpus.dtb.walker.requestOrigin_Completed::Inst            0                       # Table walker requests started/completed, data/inst
system.switch_cpus.dtb.walker.requestOrigin_Completed::total            0                       # Table walker requests started/completed, data/inst
system.switch_cpus.dtb.walker.requestOrigin::total            0                       # Table walker requests started/completed, data/inst
system.switch_cpus.dtb.walker.power_state.pwrStateResidencyTicks::UNDEFINED   1736166990                       # Cumulative time (in ticks) in various power states
system.switch_cpus.fetch.icacheStallCycles      1058122                       # Number of cycles fetch is stalled on an Icache miss
system.switch_cpus.fetch.insts               10823080                       # Number of instructions fetch has processed
system.switch_cpus.fetch.branches             1640789                       # Number of branches that fetch encountered
system.switch_cpus.fetch.predictedBranches       892259                       # Number of branches that fetch has predicted taken
system.switch_cpus.fetch.cycles               4305872                       # Number of cycles fetch has run and was not squashing or blocked
system.switch_cpus.fetch.squashCycles           21168                       # Number of cycles fetch has spent squashing
system.switch_cpus.fetch.cacheLines           1049958                       # Number of cache lines fetched
system.switch_cpus.fetch.icacheSquashes          2661                       # Number of outstanding Icache misses that were squashed
system.switch_cpus.fetch.nisnDist::samples      5374578                       # Number of instructions fetched each cycle (Total)
system.switch_cpus.fetch.nisnDist::mean      2.013766                       # Number of instructions fetched each cycle (Total)
system.switch_cpus.fetch.nisnDist::stdev     2.916752                       # Number of instructions fetched each cycle (Total)
system.switch_cpus.fetch.nisnDist::underflows            0      0.00%      0.00% # Number of instructions fetched each cycle (Total)
system.switch_cpus.fetch.nisnDist::0          3241237     60.31%     60.31% # Number of instructions fetched each cycle (Total)
system.switch_cpus.fetch.nisnDist::1           237494      4.42%     64.73% # Number of instructions fetched each cycle (Total)
system.switch_cpus.fetch.nisnDist::2           137819      2.56%     67.29% # Number of instructions fetched each cycle (Total)
system.switch_cpus.fetch.nisnDist::3           249504      4.64%     71.93% # Number of instructions fetched each cycle (Total)
system.switch_cpus.fetch.nisnDist::4           363423      6.76%     78.69% # Number of instructions fetched each cycle (Total)
system.switch_cpus.fetch.nisnDist::5            97065      1.81%     80.50% # Number of instructions fetched each cycle (Total)
system.switch_cpus.fetch.nisnDist::6           298137      5.55%     86.05% # Number of instructions fetched each cycle (Total)
system.switch_cpus.fetch.nisnDist::7           165532      3.08%     89.13% # Number of instructions fetched each cycle (Total)
system.switch_cpus.fetch.nisnDist::8           584367     10.87%    100.00% # Number of instructions fetched each cycle (Total)
system.switch_cpus.fetch.nisnDist::overflows            0      0.00%    100.00% # Number of instructions fetched each cycle (Total)
system.switch_cpus.fetch.nisnDist::min_value            0                       # Number of instructions fetched each cycle (Total)
system.switch_cpus.fetch.nisnDist::max_value            8                       # Number of instructions fetched each cycle (Total)
system.switch_cpus.fetch.nisnDist::total      5374578                       # Number of instructions fetched each cycle (Total)
system.switch_cpus.fetch.branchRate          0.305256                       # Number of branch fetches per cycle
system.switch_cpus.fetch.rate                2.013548                       # Number of inst fetches per cycle
system.switch_cpus.itb.instHits                     0                       # ITB inst hits
system.switch_cpus.itb.instMisses                   0                       # ITB inst misses
system.switch_cpus.itb.readHits                     0                       # DTB read hits
system.switch_cpus.itb.readMisses                   0                       # DTB read misses
system.switch_cpus.itb.writeHits                    0                       # DTB write hits
system.switch_cpus.itb.writeMisses                  0                       # DTB write misses
system.switch_cpus.itb.inserts                      0                       # Number of times an entry is inserted into the TLB
system.switch_cpus.itb.flushTlb                     0                       # Number of times complete TLB was flushed
system.switch_cpus.itb.flushTlbMva                  0                       # Number of times TLB was flushed by MVA
system.switch_cpus.itb.flushTlbMvaAsid              0                       # Number of times TLB was flushed by MVA & ASID
system.switch_cpus.itb.flushTlbAsid                 0                       # Number of times TLB was flushed by ASID
system.switch_cpus.itb.flushedEntries               0                       # Number of entries that have been flushed from TLB
system.switch_cpus.itb.alignFaults                  0                       # Number of TLB faults due to alignment restrictions
system.switch_cpus.itb.prefetchFaults               0                       # Number of TLB faults due to prefetch
system.switch_cpus.itb.domainFaults                 0                       # Number of TLB faults due to domain restrictions
system.switch_cpus.itb.permsFaults                  0                       # Number of TLB faults due to permissions restrictions
system.switch_cpus.itb.readAccesses                 0                       # DTB read accesses
system.switch_cpus.itb.writeAccesses                0                       # DTB write accesses
system.switch_cpus.itb.instAccesses                 0                       # ITB inst accesses
system.switch_cpus.itb.hits                         0                       # Total TLB (inst and data) hits
system.switch_cpus.itb.misses                       0                       # Total TLB (inst and data) misses
system.switch_cpus.itb.accesses                     0                       # Total TLB (inst and data) accesses
system.switch_cpus.itb.stage2_mmu.stage2_tlb.instHits            0                       # ITB inst hits
system.switch_cpus.itb.stage2_mmu.stage2_tlb.instMisses            0                       # ITB inst misses
system.switch_cpus.itb.stage2_mmu.stage2_tlb.readHits            0                       # DTB read hits
system.switch_cpus.itb.stage2_mmu.stage2_tlb.readMisses            0                       # DTB read misses
system.switch_cpus.itb.stage2_mmu.stage2_tlb.writeHits            0                       # DTB write hits
system.switch_cpus.itb.stage2_mmu.stage2_tlb.writeMisses            0                       # DTB write misses
system.switch_cpus.itb.stage2_mmu.stage2_tlb.inserts            0                       # Number of times an entry is inserted into the TLB
system.switch_cpus.itb.stage2_mmu.stage2_tlb.flushTlb            0                       # Number of times complete TLB was flushed
system.switch_cpus.itb.stage2_mmu.stage2_tlb.flushTlbMva            0                       # Number of times TLB was flushed by MVA
system.switch_cpus.itb.stage2_mmu.stage2_tlb.flushTlbMvaAsid            0                       # Number of times TLB was flushed by MVA & ASID
system.switch_cpus.itb.stage2_mmu.stage2_tlb.flushTlbAsid            0                       # Number of times TLB was flushed by ASID
system.switch_cpus.itb.stage2_mmu.stage2_tlb.flushedEntries            0                       # Number of entries that have been flushed from TLB
system.switch_cpus.itb.stage2_mmu.stage2_tlb.alignFaults            0                       # Number of TLB faults due to alignment restrictions
system.switch_cpus.itb.stage2_mmu.stage2_tlb.prefetchFaults            0                       # Number of TLB faults due to prefetch
system.switch_cpus.itb.stage2_mmu.stage2_tlb.domainFaults            0                       # Number of TLB faults due to domain restrictions
system.switch_cpus.itb.stage2_mmu.stage2_tlb.permsFaults            0                       # Number of TLB faults due to permissions restrictions
system.switch_cpus.itb.stage2_mmu.stage2_tlb.readAccesses            0                       # DTB read accesses
system.switch_cpus.itb.stage2_mmu.stage2_tlb.writeAccesses            0                       # DTB write accesses
system.switch_cpus.itb.stage2_mmu.stage2_tlb.instAccesses            0                       # ITB inst accesses
system.switch_cpus.itb.stage2_mmu.stage2_tlb.hits            0                       # Total TLB (inst and data) hits
system.switch_cpus.itb.stage2_mmu.stage2_tlb.misses            0                       # Total TLB (inst and data) misses
system.switch_cpus.itb.stage2_mmu.stage2_tlb.accesses            0                       # Total TLB (inst and data) accesses
system.switch_cpus.itb.stage2_mmu.stage2_tlb.walker.walks            0                       # Table walker walks requested
system.switch_cpus.itb.stage2_mmu.stage2_tlb.walker.requestOrigin_Requested::Data            0                       # Table walker requests started/completed, data/inst
system.switch_cpus.itb.stage2_mmu.stage2_tlb.walker.requestOrigin_Requested::Inst            0                       # Table walker requests started/completed, data/inst
system.switch_cpus.itb.stage2_mmu.stage2_tlb.walker.requestOrigin_Requested::total            0                       # Table walker requests started/completed, data/inst
system.switch_cpus.itb.stage2_mmu.stage2_tlb.walker.requestOrigin_Completed::Data            0                       # Table walker requests started/completed, data/inst
system.switch_cpus.itb.stage2_mmu.stage2_tlb.walker.requestOrigin_Completed::Inst            0                       # Table walker requests started/completed, data/inst
system.switch_cpus.itb.stage2_mmu.stage2_tlb.walker.requestOrigin_Completed::total            0                       # Table walker requests started/completed, data/inst
system.switch_cpus.itb.stage2_mmu.stage2_tlb.walker.requestOrigin::total            0                       # Table walker requests started/completed, data/inst
system.switch_cpus.itb.stage2_mmu.stage2_tlb.walker.power_state.pwrStateResidencyTicks::UNDEFINED   1736166990                       # Cumulative time (in ticks) in various power states
system.switch_cpus.itb.walker.walks                 0                       # Table walker walks requested
system.switch_cpus.itb.walker.requestOrigin_Requested::Data            0                       # Table walker requests started/completed, data/inst
system.switch_cpus.itb.walker.requestOrigin_Requested::Inst            0                       # Table walker requests started/completed, data/inst
system.switch_cpus.itb.walker.requestOrigin_Requested::total            0                       # Table walker requests started/completed, data/inst
system.switch_cpus.itb.walker.requestOrigin_Completed::Data            0                       # Table walker requests started/completed, data/inst
system.switch_cpus.itb.walker.requestOrigin_Completed::Inst            0                       # Table walker requests started/completed, data/inst
system.switch_cpus.itb.walker.requestOrigin_Completed::total            0                       # Table walker requests started/completed, data/inst
system.switch_cpus.itb.walker.requestOrigin::total            0                       # Table walker requests started/completed, data/inst
system.switch_cpus.itb.walker.power_state.pwrStateResidencyTicks::UNDEFINED   1736166990                       # Cumulative time (in ticks) in various power states
system.switch_cpus.lsq0.forwLoads             1346122                       # Number of loads that had data forwarded from stores
system.switch_cpus.lsq0.squashedLoads          185659                       # Number of loads squashed
system.switch_cpus.lsq0.ignoredResponses          441                       # Number of memory responses ignored because the instruction is squashed
system.switch_cpus.lsq0.memOrderViolation          150                       # Number of memory ordering violations
system.switch_cpus.lsq0.squashedStores          36243                       # Number of stores squashed
system.switch_cpus.lsq0.rescheduledLoads            0                       # Number of loads that were rescheduled
system.switch_cpus.lsq0.blockedByCache             13                       # Number of times an access to memory failed due to the cache being blocked
system.switch_cpus.power_state.pwrStateResidencyTicks::OFF   1736166990                       # Cumulative time (in ticks) in various power states
system.switch_cpus.rename.squashCycles          10578                       # Number of cycles rename is squashing
system.switch_cpus.rename.idleCycles           578299                       # Number of cycles rename is idle
system.switch_cpus.rename.blockCycles          472521                       # Number of cycles rename is blocking
system.switch_cpus.rename.serializeStallCycles            3                       # count of cycles rename stalledfor serializing inst
system.switch_cpus.rename.runCycles           1405832                       # Number of cycles rename is running
system.switch_cpus.rename.unblockCycles       2907345                       # Number of cycles rename is unblocking
system.switch_cpus.rename.renamedInsts       10466639                       # Number of instructions processed by rename
system.switch_cpus.rename.IQFullEvents          53321                       # Number of times rename has blocked due to IQ full
system.switch_cpus.rename.LQFullEvents        2830227                       # Number of times rename has blocked due to LQ full
system.switch_cpus.rename.SQFullEvents          25488                       # Number of times rename has blocked due to SQ full
system.switch_cpus.rename.renamedOperands     12997821                       # Number of destination operands rename has renamed
system.switch_cpus.rename.lookups            15646193                       # Number of register rename lookups that rename has made
system.switch_cpus.rename.intLookups         10955123                       # Number of integer rename lookups
system.switch_cpus.rename.committedMaps      12461620                       # Number of HB maps that are committed
system.switch_cpus.rename.undoneMaps           536198                       # Number of HB maps that are undone due to squashing
system.switch_cpus.rename.serializing               1                       # count of serializing insts renamed
system.switch_cpus.rename.tempSerializing            0                       # count of temporary serializing insts renamed
system.switch_cpus.rename.skidInsts           1777265                       # count of insts added to the skid buffer
system.switch_cpus.rob.reads                 14874818                       # The number of ROB reads
system.switch_cpus.rob.writes                20922544                       # The number of ROB writes
system.switch_cpus.thread_0.numInsts         10000006                       # Number of Instructions committed
system.switch_cpus.thread_0.numOps           10000007                       # Number of Ops committed
system.switch_cpus.thread_0.numMemRefs              0                       # Number of Memory References
system.tol2bus.trans_dist::ReadResp            170419                       # Transaction distribution
system.tol2bus.trans_dist::WritebackDirty       110324                       # Transaction distribution
system.tol2bus.trans_dist::CleanEvict           71296                       # Transaction distribution
system.tol2bus.trans_dist::HardPFReq             7531                       # Transaction distribution
system.tol2bus.trans_dist::ReadExReq             5169                       # Transaction distribution
system.tol2bus.trans_dist::ReadExResp            5169                       # Transaction distribution
system.tol2bus.trans_dist::ReadCleanReq             7                       # Transaction distribution
system.tol2bus.trans_dist::ReadSharedReq       170413                       # Transaction distribution
system.tol2bus.pkt_count_system.cpu.icache.mem_side_port::system.l2.cpu_side_port           14                       # Packet count per connected requestor and responder (bytes)
system.tol2bus.pkt_count_system.cpu.dcache.mem_side_port::system.l2.cpu_side_port       526744                       # Packet count per connected requestor and responder (bytes)
system.tol2bus.pkt_count::total                526758                       # Packet count per connected requestor and responder (bytes)
system.tol2bus.pkt_size_system.cpu.icache.mem_side_port::system.l2.cpu_side_port          896                       # Cumulative packet size per connected requestor and responder (bytes)
system.tol2bus.pkt_size_system.cpu.dcache.mem_side_port::system.l2.cpu_side_port     36592512                       # Cumulative packet size per connected requestor and responder (bytes)
system.tol2bus.pkt_size::total               36593408                       # Cumulative packet size per connected requestor and responder (bytes)
system.tol2bus.snoops                           13570                       # Total snoops (count)
system.tol2bus.snoopTraffic                      3328                       # Total snoop traffic (bytes)
system.tol2bus.snoop_fanout::samples           189159                       # Request fanout histogram
system.tol2bus.snoop_fanout::mean            0.000534                       # Request fanout histogram
system.tol2bus.snoop_fanout::stdev           0.023101                       # Request fanout histogram
system.tol2bus.snoop_fanout::underflows             0      0.00%      0.00% # Request fanout histogram
system.tol2bus.snoop_fanout::0                 189058     99.95%     99.95% # Request fanout histogram
system.tol2bus.snoop_fanout::1                    101      0.05%    100.00% # Request fanout histogram
system.tol2bus.snoop_fanout::2                      0      0.00%    100.00% # Request fanout histogram
system.tol2bus.snoop_fanout::overflows              0      0.00%    100.00% # Request fanout histogram
system.tol2bus.snoop_fanout::min_value              0                       # Request fanout histogram
system.tol2bus.snoop_fanout::max_value              1                       # Request fanout histogram
system.tol2bus.snoop_fanout::total             189159                       # Request fanout histogram
system.tol2bus.power_state.pwrStateResidencyTicks::UNDEFINED   1736166990                       # Cumulative time (in ticks) in various power states
system.tol2bus.reqLayer0.occupancy          255932926                       # Layer occupancy (ticks)
system.tol2bus.reqLayer0.utilization             14.7                       # Layer utilization (%)
system.tol2bus.respLayer0.occupancy             11305                       # Layer occupancy (ticks)
system.tol2bus.respLayer0.utilization             0.0                       # Layer utilization (%)
system.tol2bus.respLayer1.occupancy         283563315                       # Layer occupancy (ticks)
system.tol2bus.respLayer1.utilization            16.3                       # Layer utilization (%)
system.voltage_domain.voltage                       1                       # Voltage in Volts

---------- End Simulation Statistics   ----------
