
---------- Begin Simulation Statistics ----------
final_tick                               578432178000                       # Number of ticks from beginning of simulation (restored from checkpoints and never reset)
host_inst_rate                                 272698                       # Simulator instruction rate (inst/s)
host_mem_usage                               16975244                       # Number of bytes of host memory used
host_op_rate                                   272740                       # Simulator op (including micro ops) rate (op/s)
host_seconds                                     3.67                       # Real time elapsed on the host
host_tick_rate                              176176693                       # Simulator tick rate (ticks/s)
sim_freq                                 1000000000000                       # Frequency of simulated ticks
sim_insts                                     1000027                       # Number of instructions simulated
sim_ops                                       1000192                       # Number of ops (including micro ops) simulated
sim_seconds                                  0.000646                       # Number of seconds simulated
sim_ticks                                   646077600                       # Number of ticks simulated
system.cpu.Branches                                 2                       # Number of branches fetched
system.cpu.committedInsts                          25                       # Number of instructions committed
system.cpu.committedOps                            25                       # Number of ops (including micro ops) committed
system.cpu.idle_fraction                            0                       # Percentage of idle cycles
system.cpu.not_idle_fraction                        1                       # Percentage of non-idle cycles
system.cpu.numCycles                               25                       # number of cpu cycles simulated
system.cpu.numWorkItemsCompleted                    0                       # number of work items this cpu completed
system.cpu.numWorkItemsStarted                      0                       # number of work items this cpu started
system.cpu.num_busy_cycles                         25                       # Number of busy cycles
system.cpu.num_cc_register_reads                    6                       # number of times the CC registers were read
system.cpu.num_cc_register_writes                   6                       # number of times the CC registers were written
system.cpu.num_conditional_control_insts            2                       # number of instructions that are conditional controls
system.cpu.num_fp_alu_accesses                      0                       # Number of float alu accesses
system.cpu.num_fp_insts                             0                       # number of float instructions
system.cpu.num_fp_register_reads                    0                       # number of times the floating registers were read
system.cpu.num_fp_register_writes                   0                       # number of times the floating registers were written
system.cpu.num_func_calls                           0                       # number of times a function call or return occured
system.cpu.num_idle_cycles                          0                       # Number of idle cycles
system.cpu.num_int_alu_accesses                    23                       # Number of integer alu accesses
system.cpu.num_int_insts                           23                       # number of integer instructions
system.cpu.num_int_register_reads                  28                       # number of times the integer registers were read
system.cpu.num_int_register_writes                 20                       # number of times the integer registers were written
system.cpu.num_load_insts                          10                       # Number of load instructions
system.cpu.num_mem_refs                            13                       # number of memory refs
system.cpu.num_store_insts                          3                       # Number of store instructions
system.cpu.num_vec_alu_accesses                     0                       # Number of vector alu accesses
system.cpu.num_vec_insts                            0                       # number of vector instructions
system.cpu.num_vec_register_reads                   0                       # number of times the vector registers were read
system.cpu.num_vec_register_writes                  0                       # number of times the vector registers were written
system.cpu.op_class::No_OpClass                     0      0.00%      0.00% # Class of executed instruction
system.cpu.op_class::IntAlu                        12     48.00%     48.00% # Class of executed instruction
system.cpu.op_class::IntMult                        0      0.00%     48.00% # Class of executed instruction
system.cpu.op_class::IntDiv                         0      0.00%     48.00% # Class of executed instruction
system.cpu.op_class::FloatAdd                       0      0.00%     48.00% # Class of executed instruction
system.cpu.op_class::FloatCmp                       0      0.00%     48.00% # Class of executed instruction
system.cpu.op_class::FloatCvt                       0      0.00%     48.00% # Class of executed instruction
system.cpu.op_class::FloatMult                      0      0.00%     48.00% # Class of executed instruction
system.cpu.op_class::FloatMultAcc                   0      0.00%     48.00% # Class of executed instruction
system.cpu.op_class::FloatDiv                       0      0.00%     48.00% # Class of executed instruction
system.cpu.op_class::FloatMisc                      0      0.00%     48.00% # Class of executed instruction
system.cpu.op_class::FloatSqrt                      0      0.00%     48.00% # Class of executed instruction
system.cpu.op_class::SimdAdd                        0      0.00%     48.00% # Class of executed instruction
system.cpu.op_class::SimdAddAcc                     0      0.00%     48.00% # Class of executed instruction
system.cpu.op_class::SimdAlu                        0      0.00%     48.00% # Class of executed instruction
system.cpu.op_class::SimdCmp                        0      0.00%     48.00% # Class of executed instruction
system.cpu.op_class::SimdCvt                        0      0.00%     48.00% # Class of executed instruction
system.cpu.op_class::SimdMisc                       0      0.00%     48.00% # Class of executed instruction
system.cpu.op_class::SimdMult                       0      0.00%     48.00% # Class of executed instruction
system.cpu.op_class::SimdMultAcc                    0      0.00%     48.00% # Class of executed instruction
system.cpu.op_class::SimdShift                      0      0.00%     48.00% # Class of executed instruction
system.cpu.op_class::SimdShiftAcc                   0      0.00%     48.00% # Class of executed instruction
system.cpu.op_class::SimdDiv                        0      0.00%     48.00% # Class of executed instruction
system.cpu.op_class::SimdSqrt                       0      0.00%     48.00% # Class of executed instruction
system.cpu.op_class::SimdFloatAdd                   0      0.00%     48.00% # Class of executed instruction
system.cpu.op_class::SimdFloatAlu                   0      0.00%     48.00% # Class of executed instruction
system.cpu.op_class::SimdFloatCmp                   0      0.00%     48.00% # Class of executed instruction
system.cpu.op_class::SimdFloatCvt                   0      0.00%     48.00% # Class of executed instruction
system.cpu.op_class::SimdFloatDiv                   0      0.00%     48.00% # Class of executed instruction
system.cpu.op_class::SimdFloatMisc                  0      0.00%     48.00% # Class of executed instruction
system.cpu.op_class::SimdFloatMult                  0      0.00%     48.00% # Class of executed instruction
system.cpu.op_class::SimdFloatMultAcc               0      0.00%     48.00% # Class of executed instruction
system.cpu.op_class::SimdFloatSqrt                  0      0.00%     48.00% # Class of executed instruction
system.cpu.op_class::SimdReduceAdd                  0      0.00%     48.00% # Class of executed instruction
system.cpu.op_class::SimdReduceAlu                  0      0.00%     48.00% # Class of executed instruction
system.cpu.op_class::SimdReduceCmp                  0      0.00%     48.00% # Class of executed instruction
system.cpu.op_class::SimdFloatReduceAdd             0      0.00%     48.00% # Class of executed instruction
system.cpu.op_class::SimdFloatReduceCmp             0      0.00%     48.00% # Class of executed instruction
system.cpu.op_class::SimdAes                        0      0.00%     48.00% # Class of executed instruction
system.cpu.op_class::SimdAesMix                     0      0.00%     48.00% # Class of executed instruction
system.cpu.op_class::SimdSha1Hash                   0      0.00%     48.00% # Class of executed instruction
system.cpu.op_class::SimdSha1Hash2                  0      0.00%     48.00% # Class of executed instruction
system.cpu.op_class::SimdSha256Hash                 0      0.00%     48.00% # Class of executed instruction
system.cpu.op_class::SimdSha256Hash2                0      0.00%     48.00% # Class of executed instruction
system.cpu.op_class::SimdShaSigma2                  0      0.00%     48.00% # Class of executed instruction
system.cpu.op_class::SimdShaSigma3                  0      0.00%     48.00% # Class of executed instruction
system.cpu.op_class::SimdPredAlu                    0      0.00%     48.00% # Class of executed instruction
system.cpu.op_class::MemRead                       10     40.00%     88.00% # Class of executed instruction
system.cpu.op_class::MemWrite                       3     12.00%    100.00% # Class of executed instruction
system.cpu.op_class::FloatMemRead                   0      0.00%    100.00% # Class of executed instruction
system.cpu.op_class::FloatMemWrite                  0      0.00%    100.00% # Class of executed instruction
system.cpu.op_class::IprAccess                      0      0.00%    100.00% # Class of executed instruction
system.cpu.op_class::InstPrefetch                   0      0.00%    100.00% # Class of executed instruction
system.cpu.op_class::total                         25                       # Class of executed instruction
system.cpu.workload.numSyscalls                     3                       # Number of system calls
system.membus.snoop_filter.hit_multi_requests            0                       # Number of requests hitting in the snoop filter with multiple (>1) holders of the requested data.
system.membus.snoop_filter.hit_multi_snoops            0                       # Number of snoops hitting in the snoop filter with multiple (>1) holders of the requested data.
system.membus.snoop_filter.hit_single_requests         4346                       # Number of requests hitting in the snoop filter with a single holder of the requested data.
system.membus.snoop_filter.hit_single_snoops            0                       # Number of snoops hitting in the snoop filter with a single holder of the requested data.
system.membus.snoop_filter.tot_requests         12047                       # Total number of requests made to the snoop filter.
system.membus.snoop_filter.tot_snoops               0                       # Total number of snoops made to the snoop filter.
system.switch_cpus.cc_regfile_reads            282294                       # number of cc regfile reads
system.switch_cpus.cc_regfile_writes           283929                       # number of cc regfile writes
system.switch_cpus.committedInsts             1000002                       # Number of Instructions Simulated
system.switch_cpus.committedOps               1000167                       # Number of Ops (including micro ops) Simulated
system.switch_cpus.cpi                       1.615166                       # CPI: Cycles Per Instruction
system.switch_cpus.cpi_total                 1.615166                       # CPI: Total CPI of All Threads
system.switch_cpus.idleCycles                    8666                       # Total number of cycles that the CPU has spent unscheduled due to idling
system.switch_cpus.iew.branchMispredicts         6351                       # Number of branch mispredicts detected at execute
system.switch_cpus.iew.exec_branches           102171                       # Number of branches executed
system.switch_cpus.iew.exec_nop                    69                       # number of nop insts executed
system.switch_cpus.iew.exec_rate             0.700521                       # Inst execution rate
system.switch_cpus.iew.exec_refs               572022                       # number of memory reference insts executed
system.switch_cpus.iew.exec_stores             106075                       # Number of stores executed
system.switch_cpus.iew.exec_swp                     0                       # number of swp insts executed
system.switch_cpus.iew.iewBlockCycles           80863                       # Number of cycles IEW is blocking
system.switch_cpus.iew.iewDispLoadInsts        543465                       # Number of dispatched load instructions
system.switch_cpus.iew.iewDispNonSpecInsts           12                       # Number of dispatched non-speculative instructions
system.switch_cpus.iew.iewDispSquashedInsts            0                       # Number of squashed instructions skipped by dispatch
system.switch_cpus.iew.iewDispStoreInsts       132374                       # Number of dispatched store instructions
system.switch_cpus.iew.iewDispatchedInsts      1335561                       # Number of instructions dispatched to IQ
system.switch_cpus.iew.iewExecLoadInsts        465947                       # Number of load instructions executed
system.switch_cpus.iew.iewExecSquashedInsts        11373                       # Number of squashed instructions skipped in execute
system.switch_cpus.iew.iewExecutedInsts       1131459                       # Number of executed instructions
system.switch_cpus.iew.iewIQFullEvents             59                       # Number of times the IQ has become full, causing a stall
system.switch_cpus.iew.iewIdleCycles                0                       # Number of cycles IEW is idle
system.switch_cpus.iew.iewLSQFullEvents             0                       # Number of times the LSQ has become full, causing a stall
system.switch_cpus.iew.iewSquashCycles           6312                       # Number of cycles IEW is squashing
system.switch_cpus.iew.iewUnblockCycles            68                       # Number of cycles IEW is unblocking
system.switch_cpus.iew.memOrderViolationEvents          315                       # Number of memory order violations
system.switch_cpus.iew.predictedNotTakenIncorrect         2560                       # Number of branches that were predicted not taken incorrectly
system.switch_cpus.iew.predictedTakenIncorrect         3791                       # Number of branches that were predicted taken incorrectly
system.switch_cpus.iew.wb_consumers           1075188                       # num instructions consuming a value
system.switch_cpus.iew.wb_count               1123485                       # cumulative count of insts written-back
system.switch_cpus.iew.wb_fanout             0.822032                       # average fanout of values written-back
system.switch_cpus.iew.wb_producers            883839                       # num instructions producing a value
system.switch_cpus.iew.wb_rate               0.695584                       # insts written-back per cycle
system.switch_cpus.iew.wb_sent                1126435                       # cumulative count of insts sent to commit
system.switch_cpus.int_regfile_reads          1229325                       # number of integer regfile reads
system.switch_cpus.int_regfile_writes          919092                       # number of integer regfile writes
system.switch_cpus.ipc                       0.619131                       # IPC: Instructions Per Cycle
system.switch_cpus.ipc_total                 0.619131                       # IPC: Total IPC of All Threads
system.switch_cpus.iq.FU_type_0::No_OpClass            2      0.00%      0.00% # Type of FU issued
system.switch_cpus.iq.FU_type_0::IntAlu        560405     49.04%     49.04% # Type of FU issued
system.switch_cpus.iq.FU_type_0::IntMult            1      0.00%     49.04% # Type of FU issued
system.switch_cpus.iq.FU_type_0::IntDiv             0      0.00%     49.04% # Type of FU issued
system.switch_cpus.iq.FU_type_0::FloatAdd            4      0.00%     49.04% # Type of FU issued
system.switch_cpus.iq.FU_type_0::FloatCmp            0      0.00%     49.04% # Type of FU issued
system.switch_cpus.iq.FU_type_0::FloatCvt            0      0.00%     49.04% # Type of FU issued
system.switch_cpus.iq.FU_type_0::FloatMult            1      0.00%     49.04% # Type of FU issued
system.switch_cpus.iq.FU_type_0::FloatMultAcc            0      0.00%     49.04% # Type of FU issued
system.switch_cpus.iq.FU_type_0::FloatDiv            0      0.00%     49.04% # Type of FU issued
system.switch_cpus.iq.FU_type_0::FloatMisc            0      0.00%     49.04% # Type of FU issued
system.switch_cpus.iq.FU_type_0::FloatSqrt            0      0.00%     49.04% # Type of FU issued
system.switch_cpus.iq.FU_type_0::SimdAdd            0      0.00%     49.04% # Type of FU issued
system.switch_cpus.iq.FU_type_0::SimdAddAcc            0      0.00%     49.04% # Type of FU issued
system.switch_cpus.iq.FU_type_0::SimdAlu            0      0.00%     49.04% # Type of FU issued
system.switch_cpus.iq.FU_type_0::SimdCmp            0      0.00%     49.04% # Type of FU issued
system.switch_cpus.iq.FU_type_0::SimdCvt            6      0.00%     49.04% # Type of FU issued
system.switch_cpus.iq.FU_type_0::SimdMisc            0      0.00%     49.04% # Type of FU issued
system.switch_cpus.iq.FU_type_0::SimdMult            0      0.00%     49.04% # Type of FU issued
system.switch_cpus.iq.FU_type_0::SimdMultAcc            0      0.00%     49.04% # Type of FU issued
system.switch_cpus.iq.FU_type_0::SimdShift            0      0.00%     49.04% # Type of FU issued
system.switch_cpus.iq.FU_type_0::SimdShiftAcc            0      0.00%     49.04% # Type of FU issued
system.switch_cpus.iq.FU_type_0::SimdDiv            0      0.00%     49.04% # Type of FU issued
system.switch_cpus.iq.FU_type_0::SimdSqrt            0      0.00%     49.04% # Type of FU issued
system.switch_cpus.iq.FU_type_0::SimdFloatAdd            0      0.00%     49.04% # Type of FU issued
system.switch_cpus.iq.FU_type_0::SimdFloatAlu            0      0.00%     49.04% # Type of FU issued
system.switch_cpus.iq.FU_type_0::SimdFloatCmp            0      0.00%     49.04% # Type of FU issued
system.switch_cpus.iq.FU_type_0::SimdFloatCvt            0      0.00%     49.04% # Type of FU issued
system.switch_cpus.iq.FU_type_0::SimdFloatDiv            0      0.00%     49.04% # Type of FU issued
system.switch_cpus.iq.FU_type_0::SimdFloatMisc            0      0.00%     49.04% # Type of FU issued
system.switch_cpus.iq.FU_type_0::SimdFloatMult            0      0.00%     49.04% # Type of FU issued
system.switch_cpus.iq.FU_type_0::SimdFloatMultAcc            0      0.00%     49.04% # Type of FU issued
system.switch_cpus.iq.FU_type_0::SimdFloatSqrt            0      0.00%     49.04% # Type of FU issued
system.switch_cpus.iq.FU_type_0::SimdReduceAdd            0      0.00%     49.04% # Type of FU issued
system.switch_cpus.iq.FU_type_0::SimdReduceAlu            0      0.00%     49.04% # Type of FU issued
system.switch_cpus.iq.FU_type_0::SimdReduceCmp            0      0.00%     49.04% # Type of FU issued
system.switch_cpus.iq.FU_type_0::SimdFloatReduceAdd            0      0.00%     49.04% # Type of FU issued
system.switch_cpus.iq.FU_type_0::SimdFloatReduceCmp            0      0.00%     49.04% # Type of FU issued
system.switch_cpus.iq.FU_type_0::SimdAes            0      0.00%     49.04% # Type of FU issued
system.switch_cpus.iq.FU_type_0::SimdAesMix            0      0.00%     49.04% # Type of FU issued
system.switch_cpus.iq.FU_type_0::SimdSha1Hash            0      0.00%     49.04% # Type of FU issued
system.switch_cpus.iq.FU_type_0::SimdSha1Hash2            0      0.00%     49.04% # Type of FU issued
system.switch_cpus.iq.FU_type_0::SimdSha256Hash            0      0.00%     49.04% # Type of FU issued
system.switch_cpus.iq.FU_type_0::SimdSha256Hash2            0      0.00%     49.04% # Type of FU issued
system.switch_cpus.iq.FU_type_0::SimdShaSigma2            0      0.00%     49.04% # Type of FU issued
system.switch_cpus.iq.FU_type_0::SimdShaSigma3            0      0.00%     49.04% # Type of FU issued
system.switch_cpus.iq.FU_type_0::SimdPredAlu            0      0.00%     49.04% # Type of FU issued
system.switch_cpus.iq.FU_type_0::MemRead       473612     41.44%     90.48% # Type of FU issued
system.switch_cpus.iq.FU_type_0::MemWrite       108804      9.52%    100.00% # Type of FU issued
system.switch_cpus.iq.FU_type_0::FloatMemRead            0      0.00%    100.00% # Type of FU issued
system.switch_cpus.iq.FU_type_0::FloatMemWrite            0      0.00%    100.00% # Type of FU issued
system.switch_cpus.iq.FU_type_0::IprAccess            0      0.00%    100.00% # Type of FU issued
system.switch_cpus.iq.FU_type_0::InstPrefetch            0      0.00%    100.00% # Type of FU issued
system.switch_cpus.iq.FU_type_0::total        1142835                       # Type of FU issued
system.switch_cpus.iq.fp_alu_accesses               0                       # Number of floating point alu accesses
system.switch_cpus.iq.fp_inst_queue_reads            0                       # Number of floating instruction queue reads
system.switch_cpus.iq.fp_inst_queue_wakeup_accesses            0                       # Number of floating instruction queue wakeup accesses
system.switch_cpus.iq.fp_inst_queue_writes            0                       # Number of floating instruction queue writes
system.switch_cpus.iq.fu_busy_cnt              351540                       # FU busy when requested
system.switch_cpus.iq.fu_busy_rate           0.307603                       # FU busy rate (busy events/executed inst)
system.switch_cpus.iq.fu_full::No_OpClass            0      0.00%      0.00% # attempts to use FU when none available
system.switch_cpus.iq.fu_full::IntAlu           33714      9.59%      9.59% # attempts to use FU when none available
system.switch_cpus.iq.fu_full::IntMult              0      0.00%      9.59% # attempts to use FU when none available
system.switch_cpus.iq.fu_full::IntDiv               0      0.00%      9.59% # attempts to use FU when none available
system.switch_cpus.iq.fu_full::FloatAdd             0      0.00%      9.59% # attempts to use FU when none available
system.switch_cpus.iq.fu_full::FloatCmp             0      0.00%      9.59% # attempts to use FU when none available
system.switch_cpus.iq.fu_full::FloatCvt             0      0.00%      9.59% # attempts to use FU when none available
system.switch_cpus.iq.fu_full::FloatMult            0      0.00%      9.59% # attempts to use FU when none available
system.switch_cpus.iq.fu_full::FloatMultAcc            0      0.00%      9.59% # attempts to use FU when none available
system.switch_cpus.iq.fu_full::FloatDiv             0      0.00%      9.59% # attempts to use FU when none available
system.switch_cpus.iq.fu_full::FloatMisc            0      0.00%      9.59% # attempts to use FU when none available
system.switch_cpus.iq.fu_full::FloatSqrt            0      0.00%      9.59% # attempts to use FU when none available
system.switch_cpus.iq.fu_full::SimdAdd              0      0.00%      9.59% # attempts to use FU when none available
system.switch_cpus.iq.fu_full::SimdAddAcc            0      0.00%      9.59% # attempts to use FU when none available
system.switch_cpus.iq.fu_full::SimdAlu              0      0.00%      9.59% # attempts to use FU when none available
system.switch_cpus.iq.fu_full::SimdCmp              0      0.00%      9.59% # attempts to use FU when none available
system.switch_cpus.iq.fu_full::SimdCvt              0      0.00%      9.59% # attempts to use FU when none available
system.switch_cpus.iq.fu_full::SimdMisc             0      0.00%      9.59% # attempts to use FU when none available
system.switch_cpus.iq.fu_full::SimdMult             0      0.00%      9.59% # attempts to use FU when none available
system.switch_cpus.iq.fu_full::SimdMultAcc            0      0.00%      9.59% # attempts to use FU when none available
system.switch_cpus.iq.fu_full::SimdShift            0      0.00%      9.59% # attempts to use FU when none available
system.switch_cpus.iq.fu_full::SimdShiftAcc            0      0.00%      9.59% # attempts to use FU when none available
system.switch_cpus.iq.fu_full::SimdDiv              0      0.00%      9.59% # attempts to use FU when none available
system.switch_cpus.iq.fu_full::SimdSqrt             0      0.00%      9.59% # attempts to use FU when none available
system.switch_cpus.iq.fu_full::SimdFloatAdd            0      0.00%      9.59% # attempts to use FU when none available
system.switch_cpus.iq.fu_full::SimdFloatAlu            0      0.00%      9.59% # attempts to use FU when none available
system.switch_cpus.iq.fu_full::SimdFloatCmp            0      0.00%      9.59% # attempts to use FU when none available
system.switch_cpus.iq.fu_full::SimdFloatCvt            0      0.00%      9.59% # attempts to use FU when none available
system.switch_cpus.iq.fu_full::SimdFloatDiv            0      0.00%      9.59% # attempts to use FU when none available
system.switch_cpus.iq.fu_full::SimdFloatMisc            0      0.00%      9.59% # attempts to use FU when none available
system.switch_cpus.iq.fu_full::SimdFloatMult            0      0.00%      9.59% # attempts to use FU when none available
system.switch_cpus.iq.fu_full::SimdFloatMultAcc            0      0.00%      9.59% # attempts to use FU when none available
system.switch_cpus.iq.fu_full::SimdFloatSqrt            0      0.00%      9.59% # attempts to use FU when none available
system.switch_cpus.iq.fu_full::SimdReduceAdd            0      0.00%      9.59% # attempts to use FU when none available
system.switch_cpus.iq.fu_full::SimdReduceAlu            0      0.00%      9.59% # attempts to use FU when none available
system.switch_cpus.iq.fu_full::SimdReduceCmp            0      0.00%      9.59% # attempts to use FU when none available
system.switch_cpus.iq.fu_full::SimdFloatReduceAdd            0      0.00%      9.59% # attempts to use FU when none available
system.switch_cpus.iq.fu_full::SimdFloatReduceCmp            0      0.00%      9.59% # attempts to use FU when none available
system.switch_cpus.iq.fu_full::SimdAes              0      0.00%      9.59% # attempts to use FU when none available
system.switch_cpus.iq.fu_full::SimdAesMix            0      0.00%      9.59% # attempts to use FU when none available
system.switch_cpus.iq.fu_full::SimdSha1Hash            0      0.00%      9.59% # attempts to use FU when none available
system.switch_cpus.iq.fu_full::SimdSha1Hash2            0      0.00%      9.59% # attempts to use FU when none available
system.switch_cpus.iq.fu_full::SimdSha256Hash            0      0.00%      9.59% # attempts to use FU when none available
system.switch_cpus.iq.fu_full::SimdSha256Hash2            0      0.00%      9.59% # attempts to use FU when none available
system.switch_cpus.iq.fu_full::SimdShaSigma2            0      0.00%      9.59% # attempts to use FU when none available
system.switch_cpus.iq.fu_full::SimdShaSigma3            0      0.00%      9.59% # attempts to use FU when none available
system.switch_cpus.iq.fu_full::SimdPredAlu            0      0.00%      9.59% # attempts to use FU when none available
system.switch_cpus.iq.fu_full::MemRead         315300     89.69%     99.28% # attempts to use FU when none available
system.switch_cpus.iq.fu_full::MemWrite          2526      0.72%    100.00% # attempts to use FU when none available
system.switch_cpus.iq.fu_full::FloatMemRead            0      0.00%    100.00% # attempts to use FU when none available
system.switch_cpus.iq.fu_full::FloatMemWrite            0      0.00%    100.00% # attempts to use FU when none available
system.switch_cpus.iq.fu_full::IprAccess            0      0.00%    100.00% # attempts to use FU when none available
system.switch_cpus.iq.fu_full::InstPrefetch            0      0.00%    100.00% # attempts to use FU when none available
system.switch_cpus.iq.int_alu_accesses        1494334                       # Number of integer alu accesses
system.switch_cpus.iq.int_inst_queue_reads      4255199                       # Number of integer instruction queue reads
system.switch_cpus.iq.int_inst_queue_wakeup_accesses      1123457                       # Number of integer instruction queue wakeup accesses
system.switch_cpus.iq.int_inst_queue_writes      1670938                       # Number of integer instruction queue writes
system.switch_cpus.iq.iqInstsAdded            1335480                       # Number of instructions added to the IQ (excludes non-spec)
system.switch_cpus.iq.iqInstsIssued           1142835                       # Number of instructions issued
system.switch_cpus.iq.iqNonSpecInstsAdded           12                       # Number of non-speculative instructions added to the IQ
system.switch_cpus.iq.iqSquashedInstsExamined       335215                       # Number of squashed instructions iterated over during squash; mainly for profiling
system.switch_cpus.iq.iqSquashedInstsIssued        11570                       # Number of squashed instructions issued
system.switch_cpus.iq.iqSquashedNonSpecRemoved            9                       # Number of squashed non-spec instructions that were removed
system.switch_cpus.iq.iqSquashedOperandsExamined       312618                       # Number of squashed operands that are examined and possibly removed from graph
system.switch_cpus.iq.issued_per_cycle::samples      1606503                       # Number of insts issued each cycle
system.switch_cpus.iq.issued_per_cycle::mean     0.711381                       # Number of insts issued each cycle
system.switch_cpus.iq.issued_per_cycle::stdev     1.030310                       # Number of insts issued each cycle
system.switch_cpus.iq.issued_per_cycle::underflows            0      0.00%      0.00% # Number of insts issued each cycle
system.switch_cpus.iq.issued_per_cycle::0       987023     61.44%     61.44% # Number of insts issued each cycle
system.switch_cpus.iq.issued_per_cycle::1       252408     15.71%     77.15% # Number of insts issued each cycle
system.switch_cpus.iq.issued_per_cycle::2       218911     13.63%     90.78% # Number of insts issued each cycle
system.switch_cpus.iq.issued_per_cycle::3       140039      8.72%     99.49% # Number of insts issued each cycle
system.switch_cpus.iq.issued_per_cycle::4         8122      0.51%    100.00% # Number of insts issued each cycle
system.switch_cpus.iq.issued_per_cycle::5            0      0.00%    100.00% # Number of insts issued each cycle
system.switch_cpus.iq.issued_per_cycle::6            0      0.00%    100.00% # Number of insts issued each cycle
system.switch_cpus.iq.issued_per_cycle::7            0      0.00%    100.00% # Number of insts issued each cycle
system.switch_cpus.iq.issued_per_cycle::8            0      0.00%    100.00% # Number of insts issued each cycle
system.switch_cpus.iq.issued_per_cycle::overflows            0      0.00%    100.00% # Number of insts issued each cycle
system.switch_cpus.iq.issued_per_cycle::min_value            0                       # Number of insts issued each cycle
system.switch_cpus.iq.issued_per_cycle::max_value            4                       # Number of insts issued each cycle
system.switch_cpus.iq.issued_per_cycle::total      1606503                       # Number of insts issued each cycle
system.switch_cpus.iq.rate                   0.707564                       # Inst issue rate
system.switch_cpus.iq.vec_alu_accesses             39                       # Number of vector alu accesses
system.switch_cpus.iq.vec_inst_queue_reads           81                       # Number of vector instruction queue reads
system.switch_cpus.iq.vec_inst_queue_wakeup_accesses           28                       # Number of vector instruction queue wakeup accesses
system.switch_cpus.iq.vec_inst_queue_writes           80                       # Number of vector instruction queue writes
system.switch_cpus.memDep0.conflictingLoads       240115                       # Number of conflicting loads.
system.switch_cpus.memDep0.conflictingStores        76493                       # Number of conflicting stores.
system.switch_cpus.memDep0.insertedLoads       543465                       # Number of loads inserted to the mem dependence unit.
system.switch_cpus.memDep0.insertedStores       132374                       # Number of stores inserted to the mem dependence unit.
system.switch_cpus.misc_regfile_reads         2765828                       # number of misc regfile reads
system.switch_cpus.misc_regfile_writes              9                       # number of misc regfile writes
system.switch_cpus.numCycles                  1615169                       # number of cpu cycles simulated
system.switch_cpus.numWorkItemsCompleted            0                       # number of work items this cpu completed
system.switch_cpus.numWorkItemsStarted              0                       # number of work items this cpu started
system.switch_cpus.timesIdled                     120                       # Number of times that the entire CPU went into an idle state and unscheduled itself
system.switch_cpus.vec_regfile_reads               21                       # number of vector regfile reads
system.switch_cpus.vec_regfile_writes              67                       # number of vector regfile writes
system.tol2bus.snoop_filter.hit_multi_requests            0                       # Number of requests hitting in the snoop filter with multiple (>1) holders of the requested data.
system.tol2bus.snoop_filter.hit_multi_snoops            0                       # Number of snoops hitting in the snoop filter with multiple (>1) holders of the requested data.
system.tol2bus.snoop_filter.hit_single_requests        32153                       # Number of requests hitting in the snoop filter with a single holder of the requested data.
system.tol2bus.snoop_filter.hit_single_snoops           39                       # Number of snoops hitting in the snoop filter with a single holder of the requested data.
system.tol2bus.snoop_filter.tot_requests        64516                       # Total number of requests made to the snoop filter.
system.tol2bus.snoop_filter.tot_snoops             39                       # Total number of snoops made to the snoop filter.
system.clk_domain.clock                          1000                       # Clock period in ticks
system.cpu.dcache.demand_hits::.cpu.data            8                       # number of demand (read+write) hits
system.cpu.dcache.demand_hits::.switch_cpus.data       307632                       # number of demand (read+write) hits
system.cpu.dcache.demand_hits::total           307640                       # number of demand (read+write) hits
system.cpu.dcache.overall_hits::.cpu.data            8                       # number of overall hits
system.cpu.dcache.overall_hits::.switch_cpus.data       307632                       # number of overall hits
system.cpu.dcache.overall_hits::total          307640                       # number of overall hits
system.cpu.dcache.demand_misses::.cpu.data            5                       # number of demand (read+write) misses
system.cpu.dcache.demand_misses::.switch_cpus.data        52789                       # number of demand (read+write) misses
system.cpu.dcache.demand_misses::total          52794                       # number of demand (read+write) misses
system.cpu.dcache.overall_misses::.cpu.data            5                       # number of overall misses
system.cpu.dcache.overall_misses::.switch_cpus.data        52789                       # number of overall misses
system.cpu.dcache.overall_misses::total         52794                       # number of overall misses
system.cpu.dcache.demand_miss_latency::.switch_cpus.data   1766737189                       # number of demand (read+write) miss cycles
system.cpu.dcache.demand_miss_latency::total   1766737189                       # number of demand (read+write) miss cycles
system.cpu.dcache.overall_miss_latency::.switch_cpus.data   1766737189                       # number of overall miss cycles
system.cpu.dcache.overall_miss_latency::total   1766737189                       # number of overall miss cycles
system.cpu.dcache.demand_accesses::.cpu.data           13                       # number of demand (read+write) accesses
system.cpu.dcache.demand_accesses::.switch_cpus.data       360421                       # number of demand (read+write) accesses
system.cpu.dcache.demand_accesses::total       360434                       # number of demand (read+write) accesses
system.cpu.dcache.overall_accesses::.cpu.data           13                       # number of overall (read+write) accesses
system.cpu.dcache.overall_accesses::.switch_cpus.data       360421                       # number of overall (read+write) accesses
system.cpu.dcache.overall_accesses::total       360434                       # number of overall (read+write) accesses
system.cpu.dcache.demand_miss_rate::.cpu.data     0.384615                       # miss rate for demand accesses
system.cpu.dcache.demand_miss_rate::.switch_cpus.data     0.146465                       # miss rate for demand accesses
system.cpu.dcache.demand_miss_rate::total     0.146473                       # miss rate for demand accesses
system.cpu.dcache.overall_miss_rate::.cpu.data     0.384615                       # miss rate for overall accesses
system.cpu.dcache.overall_miss_rate::.switch_cpus.data     0.146465                       # miss rate for overall accesses
system.cpu.dcache.overall_miss_rate::total     0.146473                       # miss rate for overall accesses
system.cpu.dcache.demand_avg_miss_latency::.switch_cpus.data 33467.904090                       # average overall miss latency
system.cpu.dcache.demand_avg_miss_latency::total 33464.734421                       # average overall miss latency
system.cpu.dcache.overall_avg_miss_latency::.switch_cpus.data 33467.904090                       # average overall miss latency
system.cpu.dcache.overall_avg_miss_latency::total 33464.734421                       # average overall miss latency
system.cpu.dcache.blocked_cycles::no_mshrs         1094                       # number of cycles access was blocked
system.cpu.dcache.blocked_cycles::no_targets         7342                       # number of cycles access was blocked
system.cpu.dcache.blocked::no_mshrs               124                       # number of cycles access was blocked
system.cpu.dcache.blocked::no_targets             248                       # number of cycles access was blocked
system.cpu.dcache.avg_blocked_cycles::no_mshrs     8.822581                       # average number of cycles each access was blocked
system.cpu.dcache.avg_blocked_cycles::no_targets    29.604839                       # average number of cycles each access was blocked
system.cpu.dcache.writebacks::.writebacks        31518                       # number of writebacks
system.cpu.dcache.writebacks::total             31518                       # number of writebacks
system.cpu.dcache.demand_mshr_hits::.switch_cpus.data        21148                       # number of demand (read+write) MSHR hits
system.cpu.dcache.demand_mshr_hits::total        21148                       # number of demand (read+write) MSHR hits
system.cpu.dcache.overall_mshr_hits::.switch_cpus.data        21148                       # number of overall MSHR hits
system.cpu.dcache.overall_mshr_hits::total        21148                       # number of overall MSHR hits
system.cpu.dcache.demand_mshr_misses::.switch_cpus.data        31641                       # number of demand (read+write) MSHR misses
system.cpu.dcache.demand_mshr_misses::total        31641                       # number of demand (read+write) MSHR misses
system.cpu.dcache.overall_mshr_misses::.switch_cpus.data        31641                       # number of overall MSHR misses
system.cpu.dcache.overall_mshr_misses::total        31641                       # number of overall MSHR misses
system.cpu.dcache.demand_mshr_miss_latency::.switch_cpus.data    752845991                       # number of demand (read+write) MSHR miss cycles
system.cpu.dcache.demand_mshr_miss_latency::total    752845991                       # number of demand (read+write) MSHR miss cycles
system.cpu.dcache.overall_mshr_miss_latency::.switch_cpus.data    752845991                       # number of overall MSHR miss cycles
system.cpu.dcache.overall_mshr_miss_latency::total    752845991                       # number of overall MSHR miss cycles
system.cpu.dcache.demand_mshr_miss_rate::.switch_cpus.data     0.087789                       # mshr miss rate for demand accesses
system.cpu.dcache.demand_mshr_miss_rate::total     0.087786                       # mshr miss rate for demand accesses
system.cpu.dcache.overall_mshr_miss_rate::.switch_cpus.data     0.087789                       # mshr miss rate for overall accesses
system.cpu.dcache.overall_mshr_miss_rate::total     0.087786                       # mshr miss rate for overall accesses
system.cpu.dcache.demand_avg_mshr_miss_latency::.switch_cpus.data 23793.369078                       # average overall mshr miss latency
system.cpu.dcache.demand_avg_mshr_miss_latency::total 23793.369078                       # average overall mshr miss latency
system.cpu.dcache.overall_avg_mshr_miss_latency::.switch_cpus.data 23793.369078                       # average overall mshr miss latency
system.cpu.dcache.overall_avg_mshr_miss_latency::total 23793.369078                       # average overall mshr miss latency
system.cpu.dcache.replacements                  31518                       # number of replacements
system.cpu.dcache.ReadReq_hits::.cpu.data            6                       # number of ReadReq hits
system.cpu.dcache.ReadReq_hits::.switch_cpus.data       212803                       # number of ReadReq hits
system.cpu.dcache.ReadReq_hits::total          212809                       # number of ReadReq hits
system.cpu.dcache.ReadReq_misses::.cpu.data            4                       # number of ReadReq misses
system.cpu.dcache.ReadReq_misses::.switch_cpus.data        49478                       # number of ReadReq misses
system.cpu.dcache.ReadReq_misses::total         49482                       # number of ReadReq misses
system.cpu.dcache.ReadReq_miss_latency::.switch_cpus.data   1721437200                       # number of ReadReq miss cycles
system.cpu.dcache.ReadReq_miss_latency::total   1721437200                       # number of ReadReq miss cycles
system.cpu.dcache.ReadReq_accesses::.cpu.data           10                       # number of ReadReq accesses(hits+misses)
system.cpu.dcache.ReadReq_accesses::.switch_cpus.data       262281                       # number of ReadReq accesses(hits+misses)
system.cpu.dcache.ReadReq_accesses::total       262291                       # number of ReadReq accesses(hits+misses)
system.cpu.dcache.ReadReq_miss_rate::.cpu.data     0.400000                       # miss rate for ReadReq accesses
system.cpu.dcache.ReadReq_miss_rate::.switch_cpus.data     0.188645                       # miss rate for ReadReq accesses
system.cpu.dcache.ReadReq_miss_rate::total     0.188653                       # miss rate for ReadReq accesses
system.cpu.dcache.ReadReq_avg_miss_latency::.switch_cpus.data 34791.972190                       # average ReadReq miss latency
system.cpu.dcache.ReadReq_avg_miss_latency::total 34789.159694                       # average ReadReq miss latency
system.cpu.dcache.ReadReq_mshr_hits::.switch_cpus.data        19013                       # number of ReadReq MSHR hits
system.cpu.dcache.ReadReq_mshr_hits::total        19013                       # number of ReadReq MSHR hits
system.cpu.dcache.ReadReq_mshr_misses::.switch_cpus.data        30465                       # number of ReadReq MSHR misses
system.cpu.dcache.ReadReq_mshr_misses::total        30465                       # number of ReadReq MSHR misses
system.cpu.dcache.ReadReq_mshr_miss_latency::.switch_cpus.data    739616000                       # number of ReadReq MSHR miss cycles
system.cpu.dcache.ReadReq_mshr_miss_latency::total    739616000                       # number of ReadReq MSHR miss cycles
system.cpu.dcache.ReadReq_mshr_miss_rate::.switch_cpus.data     0.116154                       # mshr miss rate for ReadReq accesses
system.cpu.dcache.ReadReq_mshr_miss_rate::total     0.116150                       # mshr miss rate for ReadReq accesses
system.cpu.dcache.ReadReq_avg_mshr_miss_latency::.switch_cpus.data 24277.564418                       # average ReadReq mshr miss latency
system.cpu.dcache.ReadReq_avg_mshr_miss_latency::total 24277.564418                       # average ReadReq mshr miss latency
system.cpu.dcache.WriteReq_hits::.cpu.data            2                       # number of WriteReq hits
system.cpu.dcache.WriteReq_hits::.switch_cpus.data        94829                       # number of WriteReq hits
system.cpu.dcache.WriteReq_hits::total          94831                       # number of WriteReq hits
system.cpu.dcache.WriteReq_misses::.cpu.data            1                       # number of WriteReq misses
system.cpu.dcache.WriteReq_misses::.switch_cpus.data         3311                       # number of WriteReq misses
system.cpu.dcache.WriteReq_misses::total         3312                       # number of WriteReq misses
system.cpu.dcache.WriteReq_miss_latency::.switch_cpus.data     45299989                       # number of WriteReq miss cycles
system.cpu.dcache.WriteReq_miss_latency::total     45299989                       # number of WriteReq miss cycles
system.cpu.dcache.WriteReq_accesses::.cpu.data            3                       # number of WriteReq accesses(hits+misses)
system.cpu.dcache.WriteReq_accesses::.switch_cpus.data        98140                       # number of WriteReq accesses(hits+misses)
system.cpu.dcache.WriteReq_accesses::total        98143                       # number of WriteReq accesses(hits+misses)
system.cpu.dcache.WriteReq_miss_rate::.cpu.data     0.333333                       # miss rate for WriteReq accesses
system.cpu.dcache.WriteReq_miss_rate::.switch_cpus.data     0.033738                       # miss rate for WriteReq accesses
system.cpu.dcache.WriteReq_miss_rate::total     0.033747                       # miss rate for WriteReq accesses
system.cpu.dcache.WriteReq_avg_miss_latency::.switch_cpus.data 13681.663848                       # average WriteReq miss latency
system.cpu.dcache.WriteReq_avg_miss_latency::total 13677.532911                       # average WriteReq miss latency
system.cpu.dcache.WriteReq_mshr_hits::.switch_cpus.data         2135                       # number of WriteReq MSHR hits
system.cpu.dcache.WriteReq_mshr_hits::total         2135                       # number of WriteReq MSHR hits
system.cpu.dcache.WriteReq_mshr_misses::.switch_cpus.data         1176                       # number of WriteReq MSHR misses
system.cpu.dcache.WriteReq_mshr_misses::total         1176                       # number of WriteReq MSHR misses
system.cpu.dcache.WriteReq_mshr_miss_latency::.switch_cpus.data     13229991                       # number of WriteReq MSHR miss cycles
system.cpu.dcache.WriteReq_mshr_miss_latency::total     13229991                       # number of WriteReq MSHR miss cycles
system.cpu.dcache.WriteReq_mshr_miss_rate::.switch_cpus.data     0.011983                       # mshr miss rate for WriteReq accesses
system.cpu.dcache.WriteReq_mshr_miss_rate::total     0.011983                       # mshr miss rate for WriteReq accesses
system.cpu.dcache.WriteReq_avg_mshr_miss_latency::.switch_cpus.data 11249.992347                       # average WriteReq mshr miss latency
system.cpu.dcache.WriteReq_avg_mshr_miss_latency::total 11249.992347                       # average WriteReq mshr miss latency
system.cpu.dcache.power_state.pwrStateResidencyTicks::UNDEFINED 578432178000                       # Cumulative time (in ticks) in various power states
system.cpu.dcache.tags.tagsinuse           127.241068                       # Cycle average of tags in use
system.cpu.dcache.tags.total_refs              326080                       # Total number of references to valid blocks.
system.cpu.dcache.tags.sampled_refs             31518                       # Sample count of references to valid blocks.
system.cpu.dcache.tags.avg_refs             10.345834                       # Average number of references to valid blocks.
system.cpu.dcache.tags.warmup_cycle      577786100800                       # Cycle when the warmup percentage was hit.
system.cpu.dcache.tags.occ_blocks::.cpu.data     0.026562                       # Average occupied blocks per requestor
system.cpu.dcache.tags.occ_blocks::.switch_cpus.data   127.214506                       # Average occupied blocks per requestor
system.cpu.dcache.tags.occ_percent::.cpu.data     0.000208                       # Average percentage of cache occupancy
system.cpu.dcache.tags.occ_percent::.switch_cpus.data     0.993863                       # Average percentage of cache occupancy
system.cpu.dcache.tags.occ_percent::total     0.994071                       # Average percentage of cache occupancy
system.cpu.dcache.tags.occ_task_id_blocks::1024          128                       # Occupied blocks per task id
system.cpu.dcache.tags.age_task_id_blocks_1024::0           81                       # Occupied blocks per task id
system.cpu.dcache.tags.age_task_id_blocks_1024::1           47                       # Occupied blocks per task id
system.cpu.dcache.tags.occ_task_id_percent::1024            1                       # Percentage of cache occupancy per task id
system.cpu.dcache.tags.tag_accesses            392080                       # Number of tag accesses
system.cpu.dcache.tags.data_accesses           392080                       # Number of data accesses
system.cpu.dcache.tags.power_state.pwrStateResidencyTicks::UNDEFINED 578432178000                       # Cumulative time (in ticks) in various power states
system.cpu.dtb.instHits                             0                       # ITB inst hits
system.cpu.dtb.instMisses                           0                       # ITB inst misses
system.cpu.dtb.readHits                             0                       # DTB read hits
system.cpu.dtb.readMisses                           0                       # DTB read misses
system.cpu.dtb.writeHits                            0                       # DTB write hits
system.cpu.dtb.writeMisses                          0                       # DTB write misses
system.cpu.dtb.inserts                              0                       # Number of times an entry is inserted into the TLB
system.cpu.dtb.flushTlb                             2                       # Number of times complete TLB was flushed
system.cpu.dtb.flushTlbMva                          0                       # Number of times TLB was flushed by MVA
system.cpu.dtb.flushTlbMvaAsid                      0                       # Number of times TLB was flushed by MVA & ASID
system.cpu.dtb.flushTlbAsid                         0                       # Number of times TLB was flushed by ASID
system.cpu.dtb.flushedEntries                       0                       # Number of entries that have been flushed from TLB
system.cpu.dtb.alignFaults                          0                       # Number of TLB faults due to alignment restrictions
system.cpu.dtb.prefetchFaults                       0                       # Number of TLB faults due to prefetch
system.cpu.dtb.domainFaults                         0                       # Number of TLB faults due to domain restrictions
system.cpu.dtb.permsFaults                          0                       # Number of TLB faults due to permissions restrictions
system.cpu.dtb.readAccesses                         0                       # DTB read accesses
system.cpu.dtb.writeAccesses                        0                       # DTB write accesses
system.cpu.dtb.instAccesses                         0                       # ITB inst accesses
system.cpu.dtb.hits                                 0                       # Total TLB (inst and data) hits
system.cpu.dtb.misses                               0                       # Total TLB (inst and data) misses
system.cpu.dtb.accesses                             0                       # Total TLB (inst and data) accesses
system.cpu.dtb.stage2_mmu.stage2_tlb.instHits            0                       # ITB inst hits
system.cpu.dtb.stage2_mmu.stage2_tlb.instMisses            0                       # ITB inst misses
system.cpu.dtb.stage2_mmu.stage2_tlb.readHits            0                       # DTB read hits
system.cpu.dtb.stage2_mmu.stage2_tlb.readMisses            0                       # DTB read misses
system.cpu.dtb.stage2_mmu.stage2_tlb.writeHits            0                       # DTB write hits
system.cpu.dtb.stage2_mmu.stage2_tlb.writeMisses            0                       # DTB write misses
system.cpu.dtb.stage2_mmu.stage2_tlb.inserts            0                       # Number of times an entry is inserted into the TLB
system.cpu.dtb.stage2_mmu.stage2_tlb.flushTlb            0                       # Number of times complete TLB was flushed
system.cpu.dtb.stage2_mmu.stage2_tlb.flushTlbMva            0                       # Number of times TLB was flushed by MVA
system.cpu.dtb.stage2_mmu.stage2_tlb.flushTlbMvaAsid            0                       # Number of times TLB was flushed by MVA & ASID
system.cpu.dtb.stage2_mmu.stage2_tlb.flushTlbAsid            0                       # Number of times TLB was flushed by ASID
system.cpu.dtb.stage2_mmu.stage2_tlb.flushedEntries            0                       # Number of entries that have been flushed from TLB
system.cpu.dtb.stage2_mmu.stage2_tlb.alignFaults            0                       # Number of TLB faults due to alignment restrictions
system.cpu.dtb.stage2_mmu.stage2_tlb.prefetchFaults            0                       # Number of TLB faults due to prefetch
system.cpu.dtb.stage2_mmu.stage2_tlb.domainFaults            0                       # Number of TLB faults due to domain restrictions
system.cpu.dtb.stage2_mmu.stage2_tlb.permsFaults            0                       # Number of TLB faults due to permissions restrictions
system.cpu.dtb.stage2_mmu.stage2_tlb.readAccesses            0                       # DTB read accesses
system.cpu.dtb.stage2_mmu.stage2_tlb.writeAccesses            0                       # DTB write accesses
system.cpu.dtb.stage2_mmu.stage2_tlb.instAccesses            0                       # ITB inst accesses
system.cpu.dtb.stage2_mmu.stage2_tlb.hits            0                       # Total TLB (inst and data) hits
system.cpu.dtb.stage2_mmu.stage2_tlb.misses            0                       # Total TLB (inst and data) misses
system.cpu.dtb.stage2_mmu.stage2_tlb.accesses            0                       # Total TLB (inst and data) accesses
system.cpu.dtb.stage2_mmu.stage2_tlb.walker.walks            0                       # Table walker walks requested
system.cpu.dtb.stage2_mmu.stage2_tlb.walker.requestOrigin_Requested::Data            0                       # Table walker requests started/completed, data/inst
system.cpu.dtb.stage2_mmu.stage2_tlb.walker.requestOrigin_Requested::Inst            0                       # Table walker requests started/completed, data/inst
system.cpu.dtb.stage2_mmu.stage2_tlb.walker.requestOrigin_Requested::total            0                       # Table walker requests started/completed, data/inst
system.cpu.dtb.stage2_mmu.stage2_tlb.walker.requestOrigin_Completed::Data            0                       # Table walker requests started/completed, data/inst
system.cpu.dtb.stage2_mmu.stage2_tlb.walker.requestOrigin_Completed::Inst            0                       # Table walker requests started/completed, data/inst
system.cpu.dtb.stage2_mmu.stage2_tlb.walker.requestOrigin_Completed::total            0                       # Table walker requests started/completed, data/inst
system.cpu.dtb.stage2_mmu.stage2_tlb.walker.requestOrigin::total            0                       # Table walker requests started/completed, data/inst
system.cpu.dtb.stage2_mmu.stage2_tlb.walker.power_state.pwrStateResidencyTicks::UNDEFINED 578432178000                       # Cumulative time (in ticks) in various power states
system.cpu.dtb.walker.walks                         0                       # Table walker walks requested
system.cpu.dtb.walker.requestOrigin_Requested::Data            0                       # Table walker requests started/completed, data/inst
system.cpu.dtb.walker.requestOrigin_Requested::Inst            0                       # Table walker requests started/completed, data/inst
system.cpu.dtb.walker.requestOrigin_Requested::total            0                       # Table walker requests started/completed, data/inst
system.cpu.dtb.walker.requestOrigin_Completed::Data            0                       # Table walker requests started/completed, data/inst
system.cpu.dtb.walker.requestOrigin_Completed::Inst            0                       # Table walker requests started/completed, data/inst
system.cpu.dtb.walker.requestOrigin_Completed::total            0                       # Table walker requests started/completed, data/inst
system.cpu.dtb.walker.requestOrigin::total            0                       # Table walker requests started/completed, data/inst
system.cpu.dtb.walker.power_state.pwrStateResidencyTicks::UNDEFINED 578432178000                       # Cumulative time (in ticks) in various power states
system.cpu.dtb_walker_cache.blocked_cycles::no_mshrs            0                       # number of cycles access was blocked
system.cpu.dtb_walker_cache.blocked_cycles::no_targets            0                       # number of cycles access was blocked
system.cpu.dtb_walker_cache.blocked::no_mshrs            0                       # number of cycles access was blocked
system.cpu.dtb_walker_cache.blocked::no_targets            0                       # number of cycles access was blocked
system.cpu.dtb_walker_cache.avg_blocked_cycles::no_mshrs          nan                       # average number of cycles each access was blocked
system.cpu.dtb_walker_cache.avg_blocked_cycles::no_targets          nan                       # average number of cycles each access was blocked
system.cpu.dtb_walker_cache.replacements            0                       # number of replacements
system.cpu.dtb_walker_cache.power_state.pwrStateResidencyTicks::UNDEFINED 578432178000                       # Cumulative time (in ticks) in various power states
system.cpu.dtb_walker_cache.tags.tagsinuse            0                       # Cycle average of tags in use
system.cpu.dtb_walker_cache.tags.total_refs            0                       # Total number of references to valid blocks.
system.cpu.dtb_walker_cache.tags.sampled_refs            0                       # Sample count of references to valid blocks.
system.cpu.dtb_walker_cache.tags.avg_refs          nan                       # Average number of references to valid blocks.
system.cpu.dtb_walker_cache.tags.warmup_cycle            0                       # Cycle when the warmup percentage was hit.
system.cpu.dtb_walker_cache.tags.tag_accesses            0                       # Number of tag accesses
system.cpu.dtb_walker_cache.tags.data_accesses            0                       # Number of data accesses
system.cpu.dtb_walker_cache.tags.power_state.pwrStateResidencyTicks::UNDEFINED 578432178000                       # Cumulative time (in ticks) in various power states
system.cpu.icache.demand_hits::.cpu.inst           23                       # number of demand (read+write) hits
system.cpu.icache.demand_hits::.switch_cpus.inst       224492                       # number of demand (read+write) hits
system.cpu.icache.demand_hits::total           224515                       # number of demand (read+write) hits
system.cpu.icache.overall_hits::.cpu.inst           23                       # number of overall hits
system.cpu.icache.overall_hits::.switch_cpus.inst       224492                       # number of overall hits
system.cpu.icache.overall_hits::total          224515                       # number of overall hits
system.cpu.icache.demand_misses::.cpu.inst            2                       # number of demand (read+write) misses
system.cpu.icache.demand_misses::.switch_cpus.inst          925                       # number of demand (read+write) misses
system.cpu.icache.demand_misses::total            927                       # number of demand (read+write) misses
system.cpu.icache.overall_misses::.cpu.inst            2                       # number of overall misses
system.cpu.icache.overall_misses::.switch_cpus.inst          925                       # number of overall misses
system.cpu.icache.overall_misses::total           927                       # number of overall misses
system.cpu.icache.demand_miss_latency::.switch_cpus.inst     18401597                       # number of demand (read+write) miss cycles
system.cpu.icache.demand_miss_latency::total     18401597                       # number of demand (read+write) miss cycles
system.cpu.icache.overall_miss_latency::.switch_cpus.inst     18401597                       # number of overall miss cycles
system.cpu.icache.overall_miss_latency::total     18401597                       # number of overall miss cycles
system.cpu.icache.demand_accesses::.cpu.inst           25                       # number of demand (read+write) accesses
system.cpu.icache.demand_accesses::.switch_cpus.inst       225417                       # number of demand (read+write) accesses
system.cpu.icache.demand_accesses::total       225442                       # number of demand (read+write) accesses
system.cpu.icache.overall_accesses::.cpu.inst           25                       # number of overall (read+write) accesses
system.cpu.icache.overall_accesses::.switch_cpus.inst       225417                       # number of overall (read+write) accesses
system.cpu.icache.overall_accesses::total       225442                       # number of overall (read+write) accesses
system.cpu.icache.demand_miss_rate::.cpu.inst     0.080000                       # miss rate for demand accesses
system.cpu.icache.demand_miss_rate::.switch_cpus.inst     0.004104                       # miss rate for demand accesses
system.cpu.icache.demand_miss_rate::total     0.004112                       # miss rate for demand accesses
system.cpu.icache.overall_miss_rate::.cpu.inst     0.080000                       # miss rate for overall accesses
system.cpu.icache.overall_miss_rate::.switch_cpus.inst     0.004104                       # miss rate for overall accesses
system.cpu.icache.overall_miss_rate::total     0.004112                       # miss rate for overall accesses
system.cpu.icache.demand_avg_miss_latency::.switch_cpus.inst 19893.618378                       # average overall miss latency
system.cpu.icache.demand_avg_miss_latency::total 19850.697950                       # average overall miss latency
system.cpu.icache.overall_avg_miss_latency::.switch_cpus.inst 19893.618378                       # average overall miss latency
system.cpu.icache.overall_avg_miss_latency::total 19850.697950                       # average overall miss latency
system.cpu.icache.blocked_cycles::no_mshrs         6477                       # number of cycles access was blocked
system.cpu.icache.blocked_cycles::no_targets            0                       # number of cycles access was blocked
system.cpu.icache.blocked::no_mshrs                72                       # number of cycles access was blocked
system.cpu.icache.blocked::no_targets               0                       # number of cycles access was blocked
system.cpu.icache.avg_blocked_cycles::no_mshrs    89.958333                       # average number of cycles each access was blocked
system.cpu.icache.avg_blocked_cycles::no_targets          nan                       # average number of cycles each access was blocked
system.cpu.icache.writebacks::.writebacks          635                       # number of writebacks
system.cpu.icache.writebacks::total               635                       # number of writebacks
system.cpu.icache.demand_mshr_hits::.switch_cpus.inst          210                       # number of demand (read+write) MSHR hits
system.cpu.icache.demand_mshr_hits::total          210                       # number of demand (read+write) MSHR hits
system.cpu.icache.overall_mshr_hits::.switch_cpus.inst          210                       # number of overall MSHR hits
system.cpu.icache.overall_mshr_hits::total          210                       # number of overall MSHR hits
system.cpu.icache.demand_mshr_misses::.switch_cpus.inst          715                       # number of demand (read+write) MSHR misses
system.cpu.icache.demand_mshr_misses::total          715                       # number of demand (read+write) MSHR misses
system.cpu.icache.overall_mshr_misses::.switch_cpus.inst          715                       # number of overall MSHR misses
system.cpu.icache.overall_mshr_misses::total          715                       # number of overall MSHR misses
system.cpu.icache.demand_mshr_miss_latency::.switch_cpus.inst     14820398                       # number of demand (read+write) MSHR miss cycles
system.cpu.icache.demand_mshr_miss_latency::total     14820398                       # number of demand (read+write) MSHR miss cycles
system.cpu.icache.overall_mshr_miss_latency::.switch_cpus.inst     14820398                       # number of overall MSHR miss cycles
system.cpu.icache.overall_mshr_miss_latency::total     14820398                       # number of overall MSHR miss cycles
system.cpu.icache.demand_mshr_miss_rate::.switch_cpus.inst     0.003172                       # mshr miss rate for demand accesses
system.cpu.icache.demand_mshr_miss_rate::total     0.003172                       # mshr miss rate for demand accesses
system.cpu.icache.overall_mshr_miss_rate::.switch_cpus.inst     0.003172                       # mshr miss rate for overall accesses
system.cpu.icache.overall_mshr_miss_rate::total     0.003172                       # mshr miss rate for overall accesses
system.cpu.icache.demand_avg_mshr_miss_latency::.switch_cpus.inst 20727.829371                       # average overall mshr miss latency
system.cpu.icache.demand_avg_mshr_miss_latency::total 20727.829371                       # average overall mshr miss latency
system.cpu.icache.overall_avg_mshr_miss_latency::.switch_cpus.inst 20727.829371                       # average overall mshr miss latency
system.cpu.icache.overall_avg_mshr_miss_latency::total 20727.829371                       # average overall mshr miss latency
system.cpu.icache.replacements                    635                       # number of replacements
system.cpu.icache.ReadReq_hits::.cpu.inst           23                       # number of ReadReq hits
system.cpu.icache.ReadReq_hits::.switch_cpus.inst       224492                       # number of ReadReq hits
system.cpu.icache.ReadReq_hits::total          224515                       # number of ReadReq hits
system.cpu.icache.ReadReq_misses::.cpu.inst            2                       # number of ReadReq misses
system.cpu.icache.ReadReq_misses::.switch_cpus.inst          925                       # number of ReadReq misses
system.cpu.icache.ReadReq_misses::total           927                       # number of ReadReq misses
system.cpu.icache.ReadReq_miss_latency::.switch_cpus.inst     18401597                       # number of ReadReq miss cycles
system.cpu.icache.ReadReq_miss_latency::total     18401597                       # number of ReadReq miss cycles
system.cpu.icache.ReadReq_accesses::.cpu.inst           25                       # number of ReadReq accesses(hits+misses)
system.cpu.icache.ReadReq_accesses::.switch_cpus.inst       225417                       # number of ReadReq accesses(hits+misses)
system.cpu.icache.ReadReq_accesses::total       225442                       # number of ReadReq accesses(hits+misses)
system.cpu.icache.ReadReq_miss_rate::.cpu.inst     0.080000                       # miss rate for ReadReq accesses
system.cpu.icache.ReadReq_miss_rate::.switch_cpus.inst     0.004104                       # miss rate for ReadReq accesses
system.cpu.icache.ReadReq_miss_rate::total     0.004112                       # miss rate for ReadReq accesses
system.cpu.icache.ReadReq_avg_miss_latency::.switch_cpus.inst 19893.618378                       # average ReadReq miss latency
system.cpu.icache.ReadReq_avg_miss_latency::total 19850.697950                       # average ReadReq miss latency
system.cpu.icache.ReadReq_mshr_hits::.switch_cpus.inst          210                       # number of ReadReq MSHR hits
system.cpu.icache.ReadReq_mshr_hits::total          210                       # number of ReadReq MSHR hits
system.cpu.icache.ReadReq_mshr_misses::.switch_cpus.inst          715                       # number of ReadReq MSHR misses
system.cpu.icache.ReadReq_mshr_misses::total          715                       # number of ReadReq MSHR misses
system.cpu.icache.ReadReq_mshr_miss_latency::.switch_cpus.inst     14820398                       # number of ReadReq MSHR miss cycles
system.cpu.icache.ReadReq_mshr_miss_latency::total     14820398                       # number of ReadReq MSHR miss cycles
system.cpu.icache.ReadReq_mshr_miss_rate::.switch_cpus.inst     0.003172                       # mshr miss rate for ReadReq accesses
system.cpu.icache.ReadReq_mshr_miss_rate::total     0.003172                       # mshr miss rate for ReadReq accesses
system.cpu.icache.ReadReq_avg_mshr_miss_latency::.switch_cpus.inst 20727.829371                       # average ReadReq mshr miss latency
system.cpu.icache.ReadReq_avg_mshr_miss_latency::total 20727.829371                       # average ReadReq mshr miss latency
system.cpu.icache.power_state.pwrStateResidencyTicks::UNDEFINED 578432178000                       # Cumulative time (in ticks) in various power states
system.cpu.icache.tags.tagsinuse            15.378380                       # Cycle average of tags in use
system.cpu.icache.tags.total_refs              182233                       # Total number of references to valid blocks.
system.cpu.icache.tags.sampled_refs               635                       # Sample count of references to valid blocks.
system.cpu.icache.tags.avg_refs            286.981102                       # Average number of references to valid blocks.
system.cpu.icache.tags.warmup_cycle      577786100800                       # Cycle when the warmup percentage was hit.
system.cpu.icache.tags.occ_blocks::.cpu.inst     1.813377                       # Average occupied blocks per requestor
system.cpu.icache.tags.occ_blocks::.switch_cpus.inst    13.565003                       # Average occupied blocks per requestor
system.cpu.icache.tags.occ_percent::.cpu.inst     0.007084                       # Average percentage of cache occupancy
system.cpu.icache.tags.occ_percent::.switch_cpus.inst     0.052988                       # Average percentage of cache occupancy
system.cpu.icache.tags.occ_percent::total     0.060072                       # Average percentage of cache occupancy
system.cpu.icache.tags.occ_task_id_blocks::1024           82                       # Occupied blocks per task id
system.cpu.icache.tags.age_task_id_blocks_1024::0            1                       # Occupied blocks per task id
system.cpu.icache.tags.age_task_id_blocks_1024::1           78                       # Occupied blocks per task id
system.cpu.icache.tags.age_task_id_blocks_1024::2            3                       # Occupied blocks per task id
system.cpu.icache.tags.occ_task_id_percent::1024     0.320312                       # Percentage of cache occupancy per task id
system.cpu.icache.tags.tag_accesses            226159                       # Number of tag accesses
system.cpu.icache.tags.data_accesses           226159                       # Number of data accesses
system.cpu.icache.tags.power_state.pwrStateResidencyTicks::UNDEFINED 578432178000                       # Cumulative time (in ticks) in various power states
system.cpu.itb.instHits                             0                       # ITB inst hits
system.cpu.itb.instMisses                           0                       # ITB inst misses
system.cpu.itb.readHits                             0                       # DTB read hits
system.cpu.itb.readMisses                           0                       # DTB read misses
system.cpu.itb.writeHits                            0                       # DTB write hits
system.cpu.itb.writeMisses                          0                       # DTB write misses
system.cpu.itb.inserts                              0                       # Number of times an entry is inserted into the TLB
system.cpu.itb.flushTlb                             2                       # Number of times complete TLB was flushed
system.cpu.itb.flushTlbMva                          0                       # Number of times TLB was flushed by MVA
system.cpu.itb.flushTlbMvaAsid                      0                       # Number of times TLB was flushed by MVA & ASID
system.cpu.itb.flushTlbAsid                         0                       # Number of times TLB was flushed by ASID
system.cpu.itb.flushedEntries                       0                       # Number of entries that have been flushed from TLB
system.cpu.itb.alignFaults                          0                       # Number of TLB faults due to alignment restrictions
system.cpu.itb.prefetchFaults                       0                       # Number of TLB faults due to prefetch
system.cpu.itb.domainFaults                         0                       # Number of TLB faults due to domain restrictions
system.cpu.itb.permsFaults                          0                       # Number of TLB faults due to permissions restrictions
system.cpu.itb.readAccesses                         0                       # DTB read accesses
system.cpu.itb.writeAccesses                        0                       # DTB write accesses
system.cpu.itb.instAccesses                         0                       # ITB inst accesses
system.cpu.itb.hits                                 0                       # Total TLB (inst and data) hits
system.cpu.itb.misses                               0                       # Total TLB (inst and data) misses
system.cpu.itb.accesses                             0                       # Total TLB (inst and data) accesses
system.cpu.itb.stage2_mmu.stage2_tlb.instHits            0                       # ITB inst hits
system.cpu.itb.stage2_mmu.stage2_tlb.instMisses            0                       # ITB inst misses
system.cpu.itb.stage2_mmu.stage2_tlb.readHits            0                       # DTB read hits
system.cpu.itb.stage2_mmu.stage2_tlb.readMisses            0                       # DTB read misses
system.cpu.itb.stage2_mmu.stage2_tlb.writeHits            0                       # DTB write hits
system.cpu.itb.stage2_mmu.stage2_tlb.writeMisses            0                       # DTB write misses
system.cpu.itb.stage2_mmu.stage2_tlb.inserts            0                       # Number of times an entry is inserted into the TLB
system.cpu.itb.stage2_mmu.stage2_tlb.flushTlb            0                       # Number of times complete TLB was flushed
system.cpu.itb.stage2_mmu.stage2_tlb.flushTlbMva            0                       # Number of times TLB was flushed by MVA
system.cpu.itb.stage2_mmu.stage2_tlb.flushTlbMvaAsid            0                       # Number of times TLB was flushed by MVA & ASID
system.cpu.itb.stage2_mmu.stage2_tlb.flushTlbAsid            0                       # Number of times TLB was flushed by ASID
system.cpu.itb.stage2_mmu.stage2_tlb.flushedEntries            0                       # Number of entries that have been flushed from TLB
system.cpu.itb.stage2_mmu.stage2_tlb.alignFaults            0                       # Number of TLB faults due to alignment restrictions
system.cpu.itb.stage2_mmu.stage2_tlb.prefetchFaults            0                       # Number of TLB faults due to prefetch
system.cpu.itb.stage2_mmu.stage2_tlb.domainFaults            0                       # Number of TLB faults due to domain restrictions
system.cpu.itb.stage2_mmu.stage2_tlb.permsFaults            0                       # Number of TLB faults due to permissions restrictions
system.cpu.itb.stage2_mmu.stage2_tlb.readAccesses            0                       # DTB read accesses
system.cpu.itb.stage2_mmu.stage2_tlb.writeAccesses            0                       # DTB write accesses
system.cpu.itb.stage2_mmu.stage2_tlb.instAccesses            0                       # ITB inst accesses
system.cpu.itb.stage2_mmu.stage2_tlb.hits            0                       # Total TLB (inst and data) hits
system.cpu.itb.stage2_mmu.stage2_tlb.misses            0                       # Total TLB (inst and data) misses
system.cpu.itb.stage2_mmu.stage2_tlb.accesses            0                       # Total TLB (inst and data) accesses
system.cpu.itb.stage2_mmu.stage2_tlb.walker.walks            0                       # Table walker walks requested
system.cpu.itb.stage2_mmu.stage2_tlb.walker.requestOrigin_Requested::Data            0                       # Table walker requests started/completed, data/inst
system.cpu.itb.stage2_mmu.stage2_tlb.walker.requestOrigin_Requested::Inst            0                       # Table walker requests started/completed, data/inst
system.cpu.itb.stage2_mmu.stage2_tlb.walker.requestOrigin_Requested::total            0                       # Table walker requests started/completed, data/inst
system.cpu.itb.stage2_mmu.stage2_tlb.walker.requestOrigin_Completed::Data            0                       # Table walker requests started/completed, data/inst
system.cpu.itb.stage2_mmu.stage2_tlb.walker.requestOrigin_Completed::Inst            0                       # Table walker requests started/completed, data/inst
system.cpu.itb.stage2_mmu.stage2_tlb.walker.requestOrigin_Completed::total            0                       # Table walker requests started/completed, data/inst
system.cpu.itb.stage2_mmu.stage2_tlb.walker.requestOrigin::total            0                       # Table walker requests started/completed, data/inst
system.cpu.itb.stage2_mmu.stage2_tlb.walker.power_state.pwrStateResidencyTicks::UNDEFINED 578432178000                       # Cumulative time (in ticks) in various power states
system.cpu.itb.walker.walks                         0                       # Table walker walks requested
[...]
system.switch_cpus.fetch.insts               11579751                       # Number of instructions fetch has processed
system.switch_cpus.fetch.branches             1743236                       # Number of branches that fetch encountered
system.switch_cpus.fetch.predictedBranches       949264                       # Number of branches that fetch has predicted taken
system.switch_cpus.fetch.cycles               6096842                       # Number of cycles fetch has run and was not squashing or blocked
system.switch_cpus.fetch.squashCycles           21736                       # Number of cycles fetch has spent squashing
system.switch_cpus.fetch.miscStallCycles            1                       # Number of cycles fetch has spent waiting on interrupts,or bad addresses, or out of MSHRs
system.switch_cpus.fetch.icacheWaitRetryStallCycles           11                       # Number of stall cycles due to full MSHR
system.switch_cpus.fetch.cacheLines           1121922                       # Number of cache lines fetched
system.switch_cpus.fetch.icacheSquashes           131                       # Number of outstanding Icache misses that were squashed
system.switch_cpus.fetch.nisnDist::samples      6118882                       # Number of instructions fetched each cycle (Total)
system.switch_cpus.fetch.nisnDist::mean      1.892550                       # Number of instructions fetched each cycle (Total)
system.switch_cpus.fetch.nisnDist::stdev     2.827768                       # Number of instructions fetched each cycle (Total)
system.switch_cpus.fetch.nisnDist::underflows            0      0.00%      0.00% # Number of instructions fetched each cycle (Total)
system.switch_cpus.fetch.nisnDist::0          3756113     61.39%     61.39% # Number of instructions fetched each cycle (Total)
system.switch_cpus.fetch.nisnDist::1           288964      4.72%     66.11% # Number of instructions fetched each cycle (Total)
system.switch_cpus.fetch.nisnDist::2           182526      2.98%     69.09% # Number of instructions fetched each cycle (Total)
system.switch_cpus.fetch.nisnDist::3           276750      4.52%     73.61% # Number of instructions fetched each cycle (Total)
system.switch_cpus.fetch.nisnDist::4           415908      6.80%     80.41% # Number of instructions fetched each cycle (Total)
system.switch_cpus.fetch.nisnDist::5           104929      1.71%     82.13% # Number of instructions fetched each cycle (Total)
system.switch_cpus.fetch.nisnDist::6           343754      5.62%     87.74% # Number of instructions fetched each cycle (Total)
system.switch_cpus.fetch.nisnDist::7           154283      2.52%     90.27% # Number of instructions fetched each cycle (Total)
system.switch_cpus.fetch.nisnDist::8           595655      9.73%    100.00% # Number of instructions fetched each cycle (Total)
system.switch_cpus.fetch.nisnDist::overflows            0      0.00%    100.00% # Number of instructions fetched each cycle (Total)
system.switch_cpus.fetch.nisnDist::min_value            0                       # Number of instructions fetched each cycle (Total)
system.switch_cpus.fetch.nisnDist::max_value            8                       # Number of instructions fetched each cycle (Total)
system.switch_cpus.fetch.nisnDist::total      6118882                       # Number of instructions fetched each cycle (Total)
system.switch_cpus.fetch.branchRate          0.284887                       # Number of branch fetches per cycle
system.switch_cpus.fetch.rate                1.892413                       # Number of inst fetches per cycle
system.switch_cpus.itb.instHits                     0                       # ITB inst hits
system.switch_cpus.itb.instMisses                   0                       # ITB inst misses
system.switch_cpus.itb.readHits                     0                       # DTB read hits
system.switch_cpus.itb.readMisses                   0                       # DTB read misses
system.switch_cpus.itb.writeHits                    0                       # DTB write hits
system.switch_cpus.itb.writeMisses                  0                       # DTB write misses
system.switch_cpus.itb.inserts                      0                       # Number of times an entry is inserted into the TLB
system.switch_cpus.itb.flushTlb                     0                       # Number of times complete TLB was flushed
system.switch_cpus.itb.flushTlbMva                  0                       # Number of times TLB was flushed by MVA
system.switch_cpus.itb.flushTlbMvaAsid              0                       # Number of times TLB was flushed by MVA & ASID
system.switch_cpus.itb.flushTlbAsid                 0                       # Number of times TLB was flushed by ASID
system.switch_cpus.itb.flushedEntries               0                       # Number of entries that have been flushed from TLB
system.switch_cpus.itb.alignFaults                  0                       # Number of TLB faults due to alignment restrictions
system.switch_cpus.itb.prefetchFaults               0                       # Number of TLB faults due to prefetch
system.switch_cpus.itb.domainFaults                 0                       # Number of TLB faults due to domain restrictions
system.switch_cpus.itb.permsFaults                  0                       # Number of TLB faults due to permissions restrictions
system.switch_cpus.itb.readAccesses                 0                       # DTB read accesses
system.switch_cpus.itb.writeAccesses                0                       # DTB write accesses
system.switch_cpus.itb.instAccesses                 0                       # ITB inst accesses
system.switch_cpus.itb.hits                         0                       # Total TLB (inst and data) hits
system.switch_cpus.itb.misses                       0                       # Total TLB (inst and data) misses
system.switch_cpus.itb.accesses                     0                       # Total TLB (inst and data) accesses
system.switch_cpus.itb.stage2_mmu.stage2_tlb.instHits            0                       # ITB inst hits
system.switch_cpus.itb.stage2_mmu.stage2_tlb.instMisses            0                       # ITB inst misses
system.switch_cpus.itb.stage2_mmu.stage2_tlb.readHits            0                       # DTB read hits
system.switch_cpus.itb.stage2_mmu.stage2_tlb.readMisses            0                       # DTB read misses
system.switch_cpus.itb.stage2_mmu.stage2_tlb.writeHits            0                       # DTB write hits
system.switch_cpus.itb.stage2_mmu.stage2_tlb.writeMisses            0                       # DTB write misses
system.switch_cpus.itb.stage2_mmu.stage2_tlb.inserts            0                       # Number of times an entry is inserted into the TLB
system.switch_cpus.itb.stage2_mmu.stage2_tlb.flushTlb            0                       # Number of times complete TLB was flushed
system.switch_cpus.itb.stage2_mmu.stage2_tlb.flushTlbMva            0                       # Number of times TLB was flushed by MVA
system.switch_cpus.itb.stage2_mmu.stage2_tlb.flushTlbMvaAsid            0                       # Number of times TLB was flushed by MVA & ASID
system.switch_cpus.itb.stage2_mmu.stage2_tlb.flushTlbAsid            0                       # Number of times TLB was flushed by ASID
system.switch_cpus.itb.stage2_mmu.stage2_tlb.flushedEntries            0                       # Number of entries that have been flushed from TLB
system.switch_cpus.itb.stage2_mmu.stage2_tlb.alignFaults            0                       # Number of TLB faults due to alignment restrictions
system.switch_cpus.itb.stage2_mmu.stage2_tlb.prefetchFaults            0                       # Number of TLB faults due to prefetch
system.switch_cpus.itb.stage2_mmu.stage2_tlb.domainFaults            0                       # Number of TLB faults due to domain restrictions
system.switch_cpus.itb.stage2_mmu.stage2_tlb.permsFaults            0                       # Number of TLB faults due to permissions restrictions
system.switch_cpus.itb.stage2_mmu.stage2_tlb.readAccesses            0                       # DTB read accesses
system.switch_cpus.itb.stage2_mmu.stage2_tlb.writeAccesses            0                       # DTB write accesses
system.switch_cpus.itb.stage2_mmu.stage2_tlb.instAccesses            0                       # ITB inst accesses
system.switch_cpus.itb.stage2_mmu.stage2_tlb.hits            0                       # Total TLB (inst and data) hits
system.switch_cpus.itb.stage2_mmu.stage2_tlb.misses            0                       # Total TLB (inst and data) misses
system.switch_cpus.itb.stage2_mmu.stage2_tlb.accesses            0                       # Total TLB (inst and data) accesses
system.switch_cpus.itb.stage2_mmu.stage2_tlb.walker.walks            0                       # Table walker walks requested
system.switch_cpus.itb.stage2_mmu.stage2_tlb.walker.requestOrigin_Requested::Data            0                       # Table walker requests started/completed, data/inst
system.switch_cpus.itb.stage2_mmu.stage2_tlb.walker.requestOrigin_Requested::Inst            0                       # Table walker requests started/completed, data/inst
system.switch_cpus.itb.stage2_mmu.stage2_tlb.walker.requestOrigin_Requested::total            0                       # Table walker requests started/completed, data/inst
system.switch_cpus.itb.stage2_mmu.stage2_tlb.walker.requestOrigin_Completed::Data            0                       # Table walker requests started/completed, data/inst
system.switch_cpus.itb.stage2_mmu.stage2_tlb.walker.requestOrigin_Completed::Inst            0                       # Table walker requests started/completed, data/inst
system.switch_cpus.itb.stage2_mmu.stage2_tlb.walker.requestOrigin_Completed::total            0                       # Table walker requests started/completed, data/inst
system.switch_cpus.itb.stage2_mmu.stage2_tlb.walker.requestOrigin::total            0                       # Table walker requests started/completed, data/inst
system.switch_cpus.itb.stage2_mmu.stage2_tlb.walker.power_state.pwrStateResidencyTicks::UNDEFINED   2447616400                       # Cumulative time (in ticks) in various power states
system.switch_cpus.itb.walker.walks                 0                       # Table walker walks requested
system.switch_cpus.itb.walker.requestOrigin_Requested::Data            0                       # Table walker requests started/completed, data/inst
system.switch_cpus.itb.walker.requestOrigin_Requested::Inst            0                       # Table walker requests started/completed, data/inst
system.switch_cpus.itb.walker.requestOrigin_Requested::total            0                       # Table walker requests started/completed, data/inst
system.switch_cpus.itb.walker.requestOrigin_Completed::Data            0                       # Table walker requests started/completed, data/inst
system.switch_cpus.itb.walker.requestOrigin_Completed::Inst            0                       # Table walker requests started/completed, data/inst
system.switch_cpus.itb.walker.requestOrigin_Completed::total            0                       # Table walker requests started/completed, data/inst
system.switch_cpus.itb.walker.requestOrigin::total            0                       # Table walker requests started/completed, data/inst
system.switch_cpus.itb.walker.power_state.pwrStateResidencyTicks::UNDEFINED   2447616400                       # Cumulative time (in ticks) in various power states
system.switch_cpus.lsq0.forwLoads             1593025                       # Number of loads that had data forwarded from stores
system.switch_cpus.lsq0.squashedLoads          427956                       # Number of loads squashed
system.switch_cpus.lsq0.ignoredResponses            6                       # Number of memory responses ignored because the instruction is squashed
system.switch_cpus.lsq0.memOrderViolation          179                       # Number of memory ordering violations
system.switch_cpus.lsq0.squashedStores          73067                       # Number of stores squashed
system.switch_cpus.lsq0.rescheduledLoads            0                       # Number of loads that were rescheduled
system.switch_cpus.lsq0.blockedByCache           2556                       # Number of times an access to memory failed due to the cache being blocked
system.switch_cpus.power_state.pwrStateResidencyTicks::OFF   2447616400                       # Cumulative time (in ticks) in various power states
system.switch_cpus.rename.squashCycles          10866                       # Number of cycles rename is squashing
system.switch_cpus.rename.idleCycles           892485                       # Number of cycles rename is idle
system.switch_cpus.rename.blockCycles         2614526                       # Number of cycles rename is blocking
system.switch_cpus.rename.serializeStallCycles           11                       # count of cycles rename stalledfor serializing inst
system.switch_cpus.rename.runCycles           1034491                       # Number of cycles rename is running
system.switch_cpus.rename.unblockCycles       1566503                       # Number of cycles rename is unblocking
system.switch_cpus.rename.renamedInsts       11014350                       # Number of instructions processed by rename
system.switch_cpus.rename.squashedInsts         24985                       # Number of squashed instructions processed by rename
system.switch_cpus.rename.ROBFullEvents           275                       # Number of times rename has blocked due to ROB full
system.switch_cpus.rename.IQFullEvents         662663                       # Number of times rename has blocked due to IQ full
system.switch_cpus.rename.SQFullEvents            589                       # Number of times rename has blocked due to SQ full
system.switch_cpus.rename.fullRegistersEvents       902697                       # Number of times there has been no free registers
system.switch_cpus.rename.renamedOperands     13670368                       # Number of destination operands rename has renamed
system.switch_cpus.rename.lookups            16462597                       # Number of register rename lookups that rename has made
system.switch_cpus.rename.intLookups         11527222                       # Number of integer rename lookups
system.switch_cpus.rename.committedMaps      12461621                       # Number of HB maps that are committed
system.switch_cpus.rename.undoneMaps          1208718                       # Number of HB maps that are undone due to squashing
system.switch_cpus.rename.serializing               7                       # count of serializing insts renamed
system.switch_cpus.rename.tempSerializing            0                       # count of temporary serializing insts renamed
system.switch_cpus.rename.skidInsts           4153590                       # count of insts added to the skid buffer
system.switch_cpus.rob.reads                 14689629                       # The number of ROB reads
system.switch_cpus.rob.writes                22175658                       # The number of ROB writes
system.switch_cpus.thread_0.numInsts         10000000                       # Number of Instructions committed
system.switch_cpus.thread_0.numOps           10000001                       # Number of Ops committed
system.switch_cpus.thread_0.numMemRefs              0                       # Number of Memory References
system.tol2bus.trans_dist::ReadResp            226261                       # Transaction distribution
system.tol2bus.trans_dist::WritebackDirty        32210                       # Transaction distribution
system.tol2bus.trans_dist::WritebackClean       202957                       # Transaction distribution
system.tol2bus.trans_dist::CleanEvict           13627                       # Transaction distribution
system.tol2bus.trans_dist::HardPFReq             9362                       # Transaction distribution
system.tol2bus.trans_dist::ReadExReq             7261                       # Transaction distribution
system.tol2bus.trans_dist::ReadExResp            7261                       # Transaction distribution
system.tol2bus.trans_dist::ReadCleanReq           118                       # Transaction distribution
system.tol2bus.trans_dist::ReadSharedReq       226144                       # Transaction distribution
system.tol2bus.pkt_count_system.cpu.icache.mem_side_port::system.l2.cpu_side_port          351                       # Packet count per connected requestor and responder (bytes)
system.tol2bus.pkt_count_system.cpu.dcache.mem_side_port::system.l2.cpu_side_port       700213                       # Packet count per connected requestor and responder (bytes)
system.tol2bus.pkt_count::total                700564                       # Packet count per connected requestor and responder (bytes)
system.tol2bus.pkt_size_system.cpu.icache.mem_side_port::system.l2.cpu_side_port        29824                       # Cumulative packet size per connected requestor and responder (bytes)
system.tol2bus.pkt_size_system.cpu.dcache.mem_side_port::system.l2.cpu_side_port     59751424                       # Cumulative packet size per connected requestor and responder (bytes)
system.tol2bus.pkt_size::total               59781248                       # Cumulative packet size per connected requestor and responder (bytes)
system.tol2bus.snoops                           24637                       # Total snoops (count)
system.tol2bus.snoopTraffic                    210944                       # Total snoop traffic (bytes)
system.tol2bus.snoop_fanout::samples           258160                       # Request fanout histogram
system.tol2bus.snoop_fanout::mean            0.001305                       # Request fanout histogram
system.tol2bus.snoop_fanout::stdev           0.036107                       # Request fanout histogram
system.tol2bus.snoop_fanout::underflows             0      0.00%      0.00% # Request fanout histogram
system.tol2bus.snoop_fanout::0                 257823     99.87%     99.87% # Request fanout histogram
system.tol2bus.snoop_fanout::1                    337      0.13%    100.00% # Request fanout histogram
system.tol2bus.snoop_fanout::2                      0      0.00%    100.00% # Request fanout histogram
system.tol2bus.snoop_fanout::3                      0      0.00%    100.00% # Request fanout histogram
system.tol2bus.snoop_fanout::4                      0      0.00%    100.00% # Request fanout histogram
system.tol2bus.snoop_fanout::overflows              0      0.00%    100.00% # Request fanout histogram
system.tol2bus.snoop_fanout::min_value              0                       # Request fanout histogram
system.tol2bus.snoop_fanout::max_value              1                       # Request fanout histogram
system.tol2bus.snoop_fanout::total             258160                       # Request fanout histogram
system.tol2bus.power_state.pwrStateResidencyTicks::UNDEFINED   2447616400                       # Cumulative time (in ticks) in various power states
system.tol2bus.reqLayer0.occupancy          560447200                       # Layer occupancy (ticks)
system.tol2bus.reqLayer0.utilization             22.9                       # Layer utilization (%)
system.tol2bus.respLayer0.occupancy            236000                       # Layer occupancy (ticks)
system.tol2bus.respLayer0.utilization             0.0                       # Layer utilization (%)
system.tol2bus.respLayer1.occupancy         466808000                       # Layer occupancy (ticks)
system.tol2bus.respLayer1.utilization            19.1                       # Layer utilization (%)
system.voltage_domain.voltage                       1                       # Voltage in Volts

---------- End Simulation Statistics   ----------
