
---------- Begin Simulation Statistics ----------
final_tick                               586005715463                       # Number of ticks from beginning of simulation (restored from checkpoints and never reset)
host_inst_rate                                 375631                       # Simulator instruction rate (inst/s)
host_mem_usage                               16965264                       # Number of bytes of host memory used
host_op_rate                                   375623                       # Simulator op (including micro ops) rate (op/s)
host_seconds                                     2.66                       # Real time elapsed on the host
host_tick_rate                               82423808                       # Simulator tick rate (ticks/s)
sim_freq                                 1000000000000                       # Frequency of simulated ticks
sim_insts                                     1000030                       # Number of instructions simulated
sim_ops                                       1000030                       # Number of ops (including micro ops) simulated
sim_seconds                                  0.000219                       # Number of seconds simulated
sim_ticks                                   219439463                       # Number of ticks simulated
system.cpu.Branches                                 2                       # Number of branches fetched
system.cpu.committedInsts                          30                       # Number of instructions committed
system.cpu.committedOps                            30                       # Number of ops (including micro ops) committed
system.cpu.idle_fraction                            0                       # Percentage of idle cycles
system.cpu.not_idle_fraction                        1                       # Percentage of non-idle cycles
system.cpu.numCycles                               30                       # number of cpu cycles simulated
system.cpu.numWorkItemsCompleted                    0                       # number of work items this cpu completed
system.cpu.numWorkItemsStarted                      0                       # number of work items this cpu started
system.cpu.num_busy_cycles                         30                       # Number of busy cycles
system.cpu.num_cc_register_reads                    6                       # number of times the CC registers were read
system.cpu.num_cc_register_writes                   9                       # number of times the CC registers were written
system.cpu.num_conditional_control_insts            2                       # number of instructions that are conditional controls
system.cpu.num_fp_alu_accesses                      0                       # Number of float alu accesses
system.cpu.num_fp_insts                             0                       # number of float instructions
system.cpu.num_fp_register_reads                    0                       # number of times the floating registers were read
system.cpu.num_fp_register_writes                   0                       # number of times the floating registers were written
system.cpu.num_func_calls                           0                       # number of times a function call or return occured
system.cpu.num_idle_cycles                          0                       # Number of idle cycles
system.cpu.num_int_alu_accesses                    28                       # Number of integer alu accesses
system.cpu.num_int_insts                           28                       # number of integer instructions
system.cpu.num_int_register_reads                  35                       # number of times the integer registers were read
system.cpu.num_int_register_writes                 25                       # number of times the integer registers were written
system.cpu.num_load_insts                          13                       # Number of load instructions
system.cpu.num_mem_refs                            16                       # number of memory refs
system.cpu.num_store_insts                          3                       # Number of store instructions
system.cpu.num_vec_alu_accesses                     0                       # Number of vector alu accesses
system.cpu.num_vec_insts                            0                       # number of vector instructions
system.cpu.num_vec_register_reads                   0                       # number of times the vector registers were read
system.cpu.num_vec_register_writes                  0                       # number of times the vector registers were written
system.cpu.op_class::No_OpClass                     0      0.00%      0.00% # Class of executed instruction
system.cpu.op_class::IntAlu                        14     46.67%     46.67% # Class of executed instruction
system.cpu.op_class::IntMult                        0      0.00%     46.67% # Class of executed instruction
system.cpu.op_class::IntDiv                         0      0.00%     46.67% # Class of executed instruction
system.cpu.op_class::FloatAdd                       0      0.00%     46.67% # Class of executed instruction
system.cpu.op_class::FloatCmp                       0      0.00%     46.67% # Class of executed instruction
system.cpu.op_class::FloatCvt                       0      0.00%     46.67% # Class of executed instruction
system.cpu.op_class::FloatMult                      0      0.00%     46.67% # Class of executed instruction
system.cpu.op_class::FloatMultAcc                   0      0.00%     46.67% # Class of executed instruction
system.cpu.op_class::FloatDiv                       0      0.00%     46.67% # Class of executed instruction
system.cpu.op_class::FloatMisc                      0      0.00%     46.67% # Class of executed instruction
system.cpu.op_class::FloatSqrt                      0      0.00%     46.67% # Class of executed instruction
system.cpu.op_class::SimdAdd                        0      0.00%     46.67% # Class of executed instruction
system.cpu.op_class::SimdAddAcc                     0      0.00%     46.67% # Class of executed instruction
system.cpu.op_class::SimdAlu                        0      0.00%     46.67% # Class of executed instruction
system.cpu.op_class::SimdCmp                        0      0.00%     46.67% # Class of executed instruction
system.cpu.op_class::SimdCvt                        0      0.00%     46.67% # Class of executed instruction
system.cpu.op_class::SimdMisc                       0      0.00%     46.67% # Class of executed instruction
system.cpu.op_class::SimdMult                       0      0.00%     46.67% # Class of executed instruction
system.cpu.op_class::SimdMultAcc                    0      0.00%     46.67% # Class of executed instruction
system.cpu.op_class::SimdShift                      0      0.00%     46.67% # Class of executed instruction
system.cpu.op_class::SimdShiftAcc                   0      0.00%     46.67% # Class of executed instruction
system.cpu.op_class::SimdDiv                        0      0.00%     46.67% # Class of executed instruction
system.cpu.op_class::SimdSqrt                       0      0.00%     46.67% # Class of executed instruction
system.cpu.op_class::SimdFloatAdd                   0      0.00%     46.67% # Class of executed instruction
system.cpu.op_class::SimdFloatAlu                   0      0.00%     46.67% # Class of executed instruction
system.cpu.op_class::SimdFloatCmp                   0      0.00%     46.67% # Class of executed instruction
system.cpu.op_class::SimdFloatCvt                   0      0.00%     46.67% # Class of executed instruction
system.cpu.op_class::SimdFloatDiv                   0      0.00%     46.67% # Class of executed instruction
system.cpu.op_class::SimdFloatMisc                  0      0.00%     46.67% # Class of executed instruction
system.cpu.op_class::SimdFloatMult                  0      0.00%     46.67% # Class of executed instruction
system.cpu.op_class::SimdFloatMultAcc               0      0.00%     46.67% # Class of executed instruction
system.cpu.op_class::SimdFloatSqrt                  0      0.00%     46.67% # Class of executed instruction
system.cpu.op_class::SimdReduceAdd                  0      0.00%     46.67% # Class of executed instruction
system.cpu.op_class::SimdReduceAlu                  0      0.00%     46.67% # Class of executed instruction
system.cpu.op_class::SimdReduceCmp                  0      0.00%     46.67% # Class of executed instruction
system.cpu.op_class::SimdFloatReduceAdd             0      0.00%     46.67% # Class of executed instruction
system.cpu.op_class::SimdFloatReduceCmp             0      0.00%     46.67% # Class of executed instruction
system.cpu.op_class::SimdAes                        0      0.00%     46.67% # Class of executed instruction
system.cpu.op_class::SimdAesMix                     0      0.00%     46.67% # Class of executed instruction
system.cpu.op_class::SimdSha1Hash                   0      0.00%     46.67% # Class of executed instruction
system.cpu.op_class::SimdSha1Hash2                  0      0.00%     46.67% # Class of executed instruction
system.cpu.op_class::SimdSha256Hash                 0      0.00%     46.67% # Class of executed instruction
system.cpu.op_class::SimdSha256Hash2                0      0.00%     46.67% # Class of executed instruction
system.cpu.op_class::SimdShaSigma2                  0      0.00%     46.67% # Class of executed instruction
system.cpu.op_class::SimdShaSigma3                  0      0.00%     46.67% # Class of executed instruction
system.cpu.op_class::SimdPredAlu                    0      0.00%     46.67% # Class of executed instruction
system.cpu.op_class::MemRead                       13     43.33%     90.00% # Class of executed instruction
system.cpu.op_class::MemWrite                       3     10.00%    100.00% # Class of executed instruction
system.cpu.op_class::FloatMemRead                   0      0.00%    100.00% # Class of executed instruction
system.cpu.op_class::FloatMemWrite                  0      0.00%    100.00% # Class of executed instruction
system.cpu.op_class::IprAccess                      0      0.00%    100.00% # Class of executed instruction
system.cpu.op_class::InstPrefetch                   0      0.00%    100.00% # Class of executed instruction
system.cpu.op_class::total                         30                       # Class of executed instruction
system.cpu.workload.numSyscalls                     0                       # Number of system calls
system.membus.snoop_filter.hit_multi_requests            0                       # Number of requests hitting in the snoop filter with multiple (>1) holders of the requested data.
system.membus.snoop_filter.hit_multi_snoops            0                       # Number of snoops hitting in the snoop filter with multiple (>1) holders of the requested data.
system.membus.snoop_filter.hit_single_requests            0                       # Number of requests hitting in the snoop filter with a single holder of the requested data.
system.membus.snoop_filter.hit_single_snoops            0                       # Number of snoops hitting in the snoop filter with a single holder of the requested data.
system.membus.snoop_filter.tot_requests           951                       # Total number of requests made to the snoop filter.
system.membus.snoop_filter.tot_snoops               0                       # Total number of snoops made to the snoop filter.
system.switch_cpus.cc_regfile_reads            355998                       # number of cc regfile reads
system.switch_cpus.cc_regfile_writes           360129                       # number of cc regfile writes
system.switch_cpus.committedInsts             1000000                       # Number of Instructions Simulated
system.switch_cpus.committedOps               1000000                       # Number of Ops (including micro ops) Simulated
system.switch_cpus.cpi                       0.679348                       # CPI: Cycles Per Instruction
system.switch_cpus.cpi_total                 0.679348                       # CPI: Total CPI of All Threads
system.switch_cpus.idleCycles                    1355                       # Total number of cycles that the CPU has spent unscheduled due to idling
system.switch_cpus.iew.branchMispredicts         4158                       # Number of branch mispredicts detected at execute
system.switch_cpus.iew.exec_branches           133821                       # Number of branches executed
system.switch_cpus.iew.exec_nop                   367                       # number of nop insts executed
system.switch_cpus.iew.exec_rate             1.649969                       # Inst execution rate
system.switch_cpus.iew.exec_refs               595296                       # number of memory reference insts executed
system.switch_cpus.iew.exec_stores             101506                       # Number of stores executed
system.switch_cpus.iew.exec_swp                     0                       # number of swp insts executed
system.switch_cpus.iew.iewBlockCycles           22548                       # Number of cycles IEW is blocking
system.switch_cpus.iew.iewDispLoadInsts        516784                       # Number of dispatched load instructions
system.switch_cpus.iew.iewDispNonSpecInsts            0                       # Number of dispatched non-speculative instructions
system.switch_cpus.iew.iewDispSquashedInsts            8                       # Number of squashed instructions skipped by dispatch
system.switch_cpus.iew.iewDispStoreInsts       108977                       # Number of dispatched store instructions
system.switch_cpus.iew.iewDispatchedInsts      1196205                       # Number of instructions dispatched to IQ
system.switch_cpus.iew.iewExecLoadInsts        493790                       # Number of load instructions executed
system.switch_cpus.iew.iewExecSquashedInsts         4026                       # Number of squashed instructions skipped in execute
system.switch_cpus.iew.iewExecutedInsts       1120903                       # Number of executed instructions
system.switch_cpus.iew.iewIQFullEvents              0                       # Number of times the IQ has become full, causing a stall
system.switch_cpus.iew.iewIdleCycles                0                       # Number of cycles IEW is idle
system.switch_cpus.iew.iewLSQFullEvents        143290                       # Number of times the LSQ has become full, causing a stall
system.switch_cpus.iew.iewSquashCycles           3781                       # Number of cycles IEW is squashing
system.switch_cpus.iew.iewUnblockCycles        143063                       # Number of cycles IEW is unblocking
system.switch_cpus.iew.memOrderViolationEvents          113                       # Number of memory order violations
system.switch_cpus.iew.predictedNotTakenIncorrect         2494                       # Number of branches that were predicted not taken incorrectly
system.switch_cpus.iew.predictedTakenIncorrect         1664                       # Number of branches that were predicted taken incorrectly
system.switch_cpus.iew.wb_consumers           1116965                       # num instructions consuming a value
system.switch_cpus.iew.wb_count               1113626                       # cumulative count of insts written-back
system.switch_cpus.iew.wb_fanout             0.783459                       # average fanout of values written-back
system.switch_cpus.iew.wb_producers            875096                       # num instructions producing a value
system.switch_cpus.iew.wb_rate               1.639257                       # insts written-back per cycle
system.switch_cpus.iew.wb_sent                1116885                       # cumulative count of insts sent to commit
system.switch_cpus.int_regfile_reads          1246867                       # number of integer regfile reads
system.switch_cpus.int_regfile_writes          881627                       # number of integer regfile writes
system.switch_cpus.ipc                       1.472000                       # IPC: Instructions Per Cycle
system.switch_cpus.ipc_total                 1.472000                       # IPC: Total IPC of All Threads
system.switch_cpus.iq.FU_type_0::No_OpClass           50      0.00%      0.00% # Type of FU issued
system.switch_cpus.iq.FU_type_0::IntAlu        525662     46.73%     46.73% # Type of FU issued
system.switch_cpus.iq.FU_type_0::IntMult            0      0.00%     46.73% # Type of FU issued
system.switch_cpus.iq.FU_type_0::IntDiv             0      0.00%     46.73% # Type of FU issued
system.switch_cpus.iq.FU_type_0::FloatAdd            0      0.00%     46.73% # Type of FU issued
system.switch_cpus.iq.FU_type_0::FloatCmp            0      0.00%     46.73% # Type of FU issued
system.switch_cpus.iq.FU_type_0::FloatCvt            0      0.00%     46.73% # Type of FU issued
system.switch_cpus.iq.FU_type_0::FloatMult            0      0.00%     46.73% # Type of FU issued
system.switch_cpus.iq.FU_type_0::FloatMultAcc            0      0.00%     46.73% # Type of FU issued
system.switch_cpus.iq.FU_type_0::FloatDiv            0      0.00%     46.73% # Type of FU issued
system.switch_cpus.iq.FU_type_0::FloatMisc            0      0.00%     46.73% # Type of FU issued
system.switch_cpus.iq.FU_type_0::FloatSqrt            0      0.00%     46.73% # Type of FU issued
system.switch_cpus.iq.FU_type_0::SimdAdd            0      0.00%     46.73% # Type of FU issued
system.switch_cpus.iq.FU_type_0::SimdAddAcc            0      0.00%     46.73% # Type of FU issued
system.switch_cpus.iq.FU_type_0::SimdAlu            0      0.00%     46.73% # Type of FU issued
system.switch_cpus.iq.FU_type_0::SimdCmp            0      0.00%     46.73% # Type of FU issued
system.switch_cpus.iq.FU_type_0::SimdCvt            0      0.00%     46.73% # Type of FU issued
system.switch_cpus.iq.FU_type_0::SimdMisc            0      0.00%     46.73% # Type of FU issued
system.switch_cpus.iq.FU_type_0::SimdMult            0      0.00%     46.73% # Type of FU issued
system.switch_cpus.iq.FU_type_0::SimdMultAcc            0      0.00%     46.73% # Type of FU issued
system.switch_cpus.iq.FU_type_0::SimdShift            0      0.00%     46.73% # Type of FU issued
system.switch_cpus.iq.FU_type_0::SimdShiftAcc            0      0.00%     46.73% # Type of FU issued
system.switch_cpus.iq.FU_type_0::SimdDiv            0      0.00%     46.73% # Type of FU issued
system.switch_cpus.iq.FU_type_0::SimdSqrt            0      0.00%     46.73% # Type of FU issued
system.switch_cpus.iq.FU_type_0::SimdFloatAdd            0      0.00%     46.73% # Type of FU issued
system.switch_cpus.iq.FU_type_0::SimdFloatAlu            0      0.00%     46.73% # Type of FU issued
system.switch_cpus.iq.FU_type_0::SimdFloatCmp            0      0.00%     46.73% # Type of FU issued
system.switch_cpus.iq.FU_type_0::SimdFloatCvt            0      0.00%     46.73% # Type of FU issued
system.switch_cpus.iq.FU_type_0::SimdFloatDiv            0      0.00%     46.73% # Type of FU issued
system.switch_cpus.iq.FU_type_0::SimdFloatMisc            0      0.00%     46.73% # Type of FU issued
system.switch_cpus.iq.FU_type_0::SimdFloatMult            0      0.00%     46.73% # Type of FU issued
system.switch_cpus.iq.FU_type_0::SimdFloatMultAcc            0      0.00%     46.73% # Type of FU issued
system.switch_cpus.iq.FU_type_0::SimdFloatSqrt            0      0.00%     46.73% # Type of FU issued
system.switch_cpus.iq.FU_type_0::SimdReduceAdd            0      0.00%     46.73% # Type of FU issued
system.switch_cpus.iq.FU_type_0::SimdReduceAlu            0      0.00%     46.73% # Type of FU issued
system.switch_cpus.iq.FU_type_0::SimdReduceCmp            0      0.00%     46.73% # Type of FU issued
system.switch_cpus.iq.FU_type_0::SimdFloatReduceAdd            0      0.00%     46.73% # Type of FU issued
system.switch_cpus.iq.FU_type_0::SimdFloatReduceCmp            0      0.00%     46.73% # Type of FU issued
system.switch_cpus.iq.FU_type_0::SimdAes            0      0.00%     46.73% # Type of FU issued
system.switch_cpus.iq.FU_type_0::SimdAesMix            0      0.00%     46.73% # Type of FU issued
system.switch_cpus.iq.FU_type_0::SimdSha1Hash            0      0.00%     46.73% # Type of FU issued
system.switch_cpus.iq.FU_type_0::SimdSha1Hash2            0      0.00%     46.73% # Type of FU issued
system.switch_cpus.iq.FU_type_0::SimdSha256Hash            0      0.00%     46.73% # Type of FU issued
system.switch_cpus.iq.FU_type_0::SimdSha256Hash2            0      0.00%     46.73% # Type of FU issued
system.switch_cpus.iq.FU_type_0::SimdShaSigma2            0      0.00%     46.73% # Type of FU issued
system.switch_cpus.iq.FU_type_0::SimdShaSigma3            0      0.00%     46.73% # Type of FU issued
system.switch_cpus.iq.FU_type_0::SimdPredAlu            0      0.00%     46.73% # Type of FU issued
system.switch_cpus.iq.FU_type_0::MemRead       497235     44.20%     90.93% # Type of FU issued
system.switch_cpus.iq.FU_type_0::MemWrite       101983      9.07%    100.00% # Type of FU issued
system.switch_cpus.iq.FU_type_0::FloatMemRead            0      0.00%    100.00% # Type of FU issued
system.switch_cpus.iq.FU_type_0::FloatMemWrite            0      0.00%    100.00% # Type of FU issued
system.switch_cpus.iq.FU_type_0::IprAccess            0      0.00%    100.00% # Type of FU issued
system.switch_cpus.iq.FU_type_0::InstPrefetch            0      0.00%    100.00% # Type of FU issued
system.switch_cpus.iq.FU_type_0::total        1124930                       # Type of FU issued
system.switch_cpus.iq.fp_alu_accesses               0                       # Number of floating point alu accesses
system.switch_cpus.iq.fp_inst_queue_reads            0                       # Number of floating instruction queue reads
system.switch_cpus.iq.fp_inst_queue_wakeup_accesses            0                       # Number of floating instruction queue wakeup accesses
system.switch_cpus.iq.fp_inst_queue_writes            0                       # Number of floating instruction queue writes
system.switch_cpus.iq.fu_busy_cnt               31259                       # FU busy when requested
system.switch_cpus.iq.fu_busy_rate           0.027788                       # FU busy rate (busy events/executed inst)
system.switch_cpus.iq.fu_full::No_OpClass            0      0.00%      0.00% # attempts to use FU when none available
system.switch_cpus.iq.fu_full::IntAlu             310      0.99%      0.99% # attempts to use FU when none available
system.switch_cpus.iq.fu_full::IntMult              0      0.00%      0.99% # attempts to use FU when none available
system.switch_cpus.iq.fu_full::IntDiv               0      0.00%      0.99% # attempts to use FU when none available
system.switch_cpus.iq.fu_full::FloatAdd             0      0.00%      0.99% # attempts to use FU when none available
system.switch_cpus.iq.fu_full::FloatCmp             0      0.00%      0.99% # attempts to use FU when none available
system.switch_cpus.iq.fu_full::FloatCvt             0      0.00%      0.99% # attempts to use FU when none available
system.switch_cpus.iq.fu_full::FloatMult            0      0.00%      0.99% # attempts to use FU when none available
system.switch_cpus.iq.fu_full::FloatMultAcc            0      0.00%      0.99% # attempts to use FU when none available
system.switch_cpus.iq.fu_full::FloatDiv             0      0.00%      0.99% # attempts to use FU when none available
system.switch_cpus.iq.fu_full::FloatMisc            0      0.00%      0.99% # attempts to use FU when none available
system.switch_cpus.iq.fu_full::FloatSqrt            0      0.00%      0.99% # attempts to use FU when none available
system.switch_cpus.iq.fu_full::SimdAdd              0      0.00%      0.99% # attempts to use FU when none available
system.switch_cpus.iq.fu_full::SimdAddAcc            0      0.00%      0.99% # attempts to use FU when none available
system.switch_cpus.iq.fu_full::SimdAlu              0      0.00%      0.99% # attempts to use FU when none available
system.switch_cpus.iq.fu_full::SimdCmp              0      0.00%      0.99% # attempts to use FU when none available
system.switch_cpus.iq.fu_full::SimdCvt              0      0.00%      0.99% # attempts to use FU when none available
system.switch_cpus.iq.fu_full::SimdMisc             0      0.00%      0.99% # attempts to use FU when none available
system.switch_cpus.iq.fu_full::SimdMult             0      0.00%      0.99% # attempts to use FU when none available
system.switch_cpus.iq.fu_full::SimdMultAcc            0      0.00%      0.99% # attempts to use FU when none available
system.switch_cpus.iq.fu_full::SimdShift            0      0.00%      0.99% # attempts to use FU when none available
system.switch_cpus.iq.fu_full::SimdShiftAcc            0      0.00%      0.99% # attempts to use FU when none available
system.switch_cpus.iq.fu_full::SimdDiv              0      0.00%      0.99% # attempts to use FU when none available
system.switch_cpus.iq.fu_full::SimdSqrt             0      0.00%      0.99% # attempts to use FU when none available
system.switch_cpus.iq.fu_full::SimdFloatAdd            0      0.00%      0.99% # attempts to use FU when none available
system.switch_cpus.iq.fu_full::SimdFloatAlu            0      0.00%      0.99% # attempts to use FU when none available
system.switch_cpus.iq.fu_full::SimdFloatCmp            0      0.00%      0.99% # attempts to use FU when none available
system.switch_cpus.iq.fu_full::SimdFloatCvt            0      0.00%      0.99% # attempts to use FU when none available
system.switch_cpus.iq.fu_full::SimdFloatDiv            0      0.00%      0.99% # attempts to use FU when none available
system.switch_cpus.iq.fu_full::SimdFloatMisc            0      0.00%      0.99% # attempts to use FU when none available
system.switch_cpus.iq.fu_full::SimdFloatMult            0      0.00%      0.99% # attempts to use FU when none available
system.switch_cpus.iq.fu_full::SimdFloatMultAcc            0      0.00%      0.99% # attempts to use FU when none available
system.switch_cpus.iq.fu_full::SimdFloatSqrt            0      0.00%      0.99% # attempts to use FU when none available
system.switch_cpus.iq.fu_full::SimdReduceAdd            0      0.00%      0.99% # attempts to use FU when none available
system.switch_cpus.iq.fu_full::SimdReduceAlu            0      0.00%      0.99% # attempts to use FU when none available
system.switch_cpus.iq.fu_full::SimdReduceCmp            0      0.00%      0.99% # attempts to use FU when none available
system.switch_cpus.iq.fu_full::SimdFloatReduceAdd            0      0.00%      0.99% # attempts to use FU when none available
system.switch_cpus.iq.fu_full::SimdFloatReduceCmp            0      0.00%      0.99% # attempts to use FU when none available
system.switch_cpus.iq.fu_full::SimdAes              0      0.00%      0.99% # attempts to use FU when none available
system.switch_cpus.iq.fu_full::SimdAesMix            0      0.00%      0.99% # attempts to use FU when none available
system.switch_cpus.iq.fu_full::SimdSha1Hash            0      0.00%      0.99% # attempts to use FU when none available
system.switch_cpus.iq.fu_full::SimdSha1Hash2            0      0.00%      0.99% # attempts to use FU when none available
system.switch_cpus.iq.fu_full::SimdSha256Hash            0      0.00%      0.99% # attempts to use FU when none available
system.switch_cpus.iq.fu_full::SimdSha256Hash2            0      0.00%      0.99% # attempts to use FU when none available
system.switch_cpus.iq.fu_full::SimdShaSigma2            0      0.00%      0.99% # attempts to use FU when none available
system.switch_cpus.iq.fu_full::SimdShaSigma3            0      0.00%      0.99% # attempts to use FU when none available
system.switch_cpus.iq.fu_full::SimdPredAlu            0      0.00%      0.99% # attempts to use FU when none available
system.switch_cpus.iq.fu_full::MemRead          23663     75.70%     76.69% # attempts to use FU when none available
system.switch_cpus.iq.fu_full::MemWrite          7286     23.31%    100.00% # attempts to use FU when none available
system.switch_cpus.iq.fu_full::FloatMemRead            0      0.00%    100.00% # attempts to use FU when none available
system.switch_cpus.iq.fu_full::FloatMemWrite            0      0.00%    100.00% # attempts to use FU when none available
system.switch_cpus.iq.fu_full::IprAccess            0      0.00%    100.00% # attempts to use FU when none available
system.switch_cpus.iq.fu_full::InstPrefetch            0      0.00%    100.00% # attempts to use FU when none available
system.switch_cpus.iq.int_alu_accesses        1156139                       # Number of integer alu accesses
system.switch_cpus.iq.int_inst_queue_reads      2959230                       # Number of integer instruction queue reads
system.switch_cpus.iq.int_inst_queue_wakeup_accesses      1113626                       # Number of integer instruction queue wakeup accesses
system.switch_cpus.iq.int_inst_queue_writes      1391726                       # Number of integer instruction queue writes
system.switch_cpus.iq.iqInstsAdded            1195838                       # Number of instructions added to the IQ (excludes non-spec)
system.switch_cpus.iq.iqInstsIssued           1124930                       # Number of instructions issued
system.switch_cpus.iq.iqSquashedInstsExamined       195797                       # Number of squashed instructions iterated over during squash; mainly for profiling
system.switch_cpus.iq.iqSquashedInstsIssued          119                       # Number of squashed instructions issued
system.switch_cpus.iq.iqSquashedOperandsExamined       127350                       # Number of squashed operands that are examined and possibly removed from graph
system.switch_cpus.iq.issued_per_cycle::samples       677993                       # Number of insts issued each cycle
system.switch_cpus.iq.issued_per_cycle::mean     1.659206                       # Number of insts issued each cycle
system.switch_cpus.iq.issued_per_cycle::stdev     1.907635                       # Number of insts issued each cycle
system.switch_cpus.iq.issued_per_cycle::underflows            0      0.00%      0.00% # Number of insts issued each cycle
system.switch_cpus.iq.issued_per_cycle::0       291045     42.93%     42.93% # Number of insts issued each cycle
system.switch_cpus.iq.issued_per_cycle::1       105585     15.57%     58.50% # Number of insts issued each cycle
system.switch_cpus.iq.issued_per_cycle::2        78126     11.52%     70.02% # Number of insts issued each cycle
system.switch_cpus.iq.issued_per_cycle::3        61137      9.02%     79.04% # Number of insts issued each cycle
system.switch_cpus.iq.issued_per_cycle::4        68428     10.09%     89.13% # Number of insts issued each cycle
system.switch_cpus.iq.issued_per_cycle::5        43460      6.41%     95.54% # Number of insts issued each cycle
system.switch_cpus.iq.issued_per_cycle::6        22952      3.39%     98.93% # Number of insts issued each cycle
system.switch_cpus.iq.issued_per_cycle::7         7122      1.05%     99.98% # Number of insts issued each cycle
system.switch_cpus.iq.issued_per_cycle::8          138      0.02%    100.00% # Number of insts issued each cycle
system.switch_cpus.iq.issued_per_cycle::overflows            0      0.00%    100.00% # Number of insts issued each cycle
system.switch_cpus.iq.issued_per_cycle::min_value            0                       # Number of insts issued each cycle
system.switch_cpus.iq.issued_per_cycle::max_value            8                       # Number of insts issued each cycle
system.switch_cpus.iq.issued_per_cycle::total       677993                       # Number of insts issued each cycle
system.switch_cpus.iq.rate                   1.655897                       # Inst issue rate
system.switch_cpus.iq.vec_alu_accesses              0                       # Number of vector alu accesses
system.switch_cpus.iq.vec_inst_queue_reads            0                       # Number of vector instruction queue reads
system.switch_cpus.iq.vec_inst_queue_wakeup_accesses            0                       # Number of vector instruction queue wakeup accesses
system.switch_cpus.iq.vec_inst_queue_writes            0                       # Number of vector instruction queue writes
system.switch_cpus.memDep0.conflictingLoads       209089                       # Number of conflicting loads.
system.switch_cpus.memDep0.conflictingStores        62026                       # Number of conflicting stores.
system.switch_cpus.memDep0.insertedLoads       516784                       # Number of loads inserted to the mem dependence unit.
system.switch_cpus.memDep0.insertedStores       108977                       # Number of stores inserted to the mem dependence unit.
system.switch_cpus.misc_regfile_reads         2602317                       # number of misc regfile reads
system.switch_cpus.misc_regfile_writes              1                       # number of misc regfile writes
system.switch_cpus.numCycles                   679348                       # number of cpu cycles simulated
system.switch_cpus.numWorkItemsCompleted            0                       # number of work items this cpu completed
system.switch_cpus.numWorkItemsStarted              0                       # number of work items this cpu started
system.switch_cpus.timesIdled                      11                       # Number of times that the entire CPU went into an idle state and unscheduled itself
system.switch_cpus.vec_regfile_writes              44                       # number of vector regfile writes
system.tol2bus.snoop_filter.hit_multi_requests            0                       # Number of requests hitting in the snoop filter with multiple (>1) holders of the requested data.
system.tol2bus.snoop_filter.hit_multi_snoops            0                       # Number of snoops hitting in the snoop filter with multiple (>1) holders of the requested data.
system.tol2bus.snoop_filter.hit_single_requests         2628                       # Number of requests hitting in the snoop filter with a single holder of the requested data.
system.tol2bus.snoop_filter.hit_single_snoops            0                       # Number of snoops hitting in the snoop filter with a single holder of the requested data.
system.tol2bus.snoop_filter.tot_requests         5525                       # Total number of requests made to the snoop filter.
system.tol2bus.snoop_filter.tot_snoops              0                       # Total number of snoops made to the snoop filter.
system.clk_domain.clock                          1000                       # Clock period in ticks
system.cpu.dcache.demand_hits::.cpu.data           11                       # number of demand (read+write) hits
system.cpu.dcache.demand_hits::.switch_cpus.data       406194                       # number of demand (read+write) hits
system.cpu.dcache.demand_hits::total           406205                       # number of demand (read+write) hits
system.cpu.dcache.overall_hits::.cpu.data           11                       # number of overall hits
system.cpu.dcache.overall_hits::.switch_cpus.data       406194                       # number of overall hits
system.cpu.dcache.overall_hits::total          406205                       # number of overall hits
system.cpu.dcache.demand_misses::.cpu.data            5                       # number of demand (read+write) misses
system.cpu.dcache.demand_misses::.switch_cpus.data         5188                       # number of demand (read+write) misses
system.cpu.dcache.demand_misses::total           5193                       # number of demand (read+write) misses
system.cpu.dcache.overall_misses::.cpu.data            5                       # number of overall misses
system.cpu.dcache.overall_misses::.switch_cpus.data         5188                       # number of overall misses
system.cpu.dcache.overall_misses::total          5193                       # number of overall misses
system.cpu.dcache.demand_miss_latency::.switch_cpus.data    175184864                       # number of demand (read+write) miss cycles
system.cpu.dcache.demand_miss_latency::total    175184864                       # number of demand (read+write) miss cycles
system.cpu.dcache.overall_miss_latency::.switch_cpus.data    175184864                       # number of overall miss cycles
system.cpu.dcache.overall_miss_latency::total    175184864                       # number of overall miss cycles
system.cpu.dcache.demand_accesses::.cpu.data           16                       # number of demand (read+write) accesses
system.cpu.dcache.demand_accesses::.switch_cpus.data       411382                       # number of demand (read+write) accesses
system.cpu.dcache.demand_accesses::total       411398                       # number of demand (read+write) accesses
system.cpu.dcache.overall_accesses::.cpu.data           16                       # number of overall (read+write) accesses
system.cpu.dcache.overall_accesses::.switch_cpus.data       411382                       # number of overall (read+write) accesses
system.cpu.dcache.overall_accesses::total       411398                       # number of overall (read+write) accesses
system.cpu.dcache.demand_miss_rate::.cpu.data     0.312500                       # miss rate for demand accesses
system.cpu.dcache.demand_miss_rate::.switch_cpus.data     0.012611                       # miss rate for demand accesses
system.cpu.dcache.demand_miss_rate::total     0.012623                       # miss rate for demand accesses
system.cpu.dcache.overall_miss_rate::.cpu.data     0.312500                       # miss rate for overall accesses
system.cpu.dcache.overall_miss_rate::.switch_cpus.data     0.012611                       # miss rate for overall accesses
system.cpu.dcache.overall_miss_rate::total     0.012623                       # miss rate for overall accesses
system.cpu.dcache.demand_avg_miss_latency::.switch_cpus.data 33767.321511                       # average overall miss latency
system.cpu.dcache.demand_avg_miss_latency::total 33734.809166                       # average overall miss latency
system.cpu.dcache.overall_avg_miss_latency::.switch_cpus.data 33767.321511                       # average overall miss latency
system.cpu.dcache.overall_avg_miss_latency::total 33734.809166                       # average overall miss latency
system.cpu.dcache.blocked_cycles::no_mshrs            0                       # number of cycles access was blocked
system.cpu.dcache.blocked_cycles::no_targets            0                       # number of cycles access was blocked
system.cpu.dcache.blocked::no_mshrs                 0                       # number of cycles access was blocked
system.cpu.dcache.blocked::no_targets               0                       # number of cycles access was blocked
system.cpu.dcache.avg_blocked_cycles::no_mshrs          nan                       # average number of cycles each access was blocked
system.cpu.dcache.avg_blocked_cycles::no_targets          nan                       # average number of cycles each access was blocked
system.cpu.dcache.writebacks::.writebacks         1132                       # number of writebacks
system.cpu.dcache.writebacks::total              1132                       # number of writebacks
system.cpu.dcache.demand_mshr_hits::.switch_cpus.data         2309                       # number of demand (read+write) MSHR hits
system.cpu.dcache.demand_mshr_hits::total         2309                       # number of demand (read+write) MSHR hits
system.cpu.dcache.overall_mshr_hits::.switch_cpus.data         2309                       # number of overall MSHR hits
system.cpu.dcache.overall_mshr_hits::total         2309                       # number of overall MSHR hits
system.cpu.dcache.demand_mshr_misses::.switch_cpus.data         2879                       # number of demand (read+write) MSHR misses
system.cpu.dcache.demand_mshr_misses::total         2879                       # number of demand (read+write) MSHR misses
system.cpu.dcache.overall_mshr_misses::.switch_cpus.data         2879                       # number of overall MSHR misses
system.cpu.dcache.overall_mshr_misses::total         2879                       # number of overall MSHR misses
system.cpu.dcache.demand_mshr_miss_latency::.switch_cpus.data     87091136                       # number of demand (read+write) MSHR miss cycles
system.cpu.dcache.demand_mshr_miss_latency::total     87091136                       # number of demand (read+write) MSHR miss cycles
system.cpu.dcache.overall_mshr_miss_latency::.switch_cpus.data     87091136                       # number of overall MSHR miss cycles
system.cpu.dcache.overall_mshr_miss_latency::total     87091136                       # number of overall MSHR miss cycles
system.cpu.dcache.demand_mshr_miss_rate::.switch_cpus.data     0.006998                       # mshr miss rate for demand accesses
system.cpu.dcache.demand_mshr_miss_rate::total     0.006998                       # mshr miss rate for demand accesses
system.cpu.dcache.overall_mshr_miss_rate::.switch_cpus.data     0.006998                       # mshr miss rate for overall accesses
system.cpu.dcache.overall_mshr_miss_rate::total     0.006998                       # mshr miss rate for overall accesses
system.cpu.dcache.demand_avg_mshr_miss_latency::.switch_cpus.data 30250.481417                       # average overall mshr miss latency
system.cpu.dcache.demand_avg_mshr_miss_latency::total 30250.481417                       # average overall mshr miss latency
system.cpu.dcache.overall_avg_mshr_miss_latency::.switch_cpus.data 30250.481417                       # average overall mshr miss latency
system.cpu.dcache.overall_avg_mshr_miss_latency::total 30250.481417                       # average overall mshr miss latency
system.cpu.dcache.replacements                   2628                       # number of replacements
system.cpu.dcache.ReadReq_hits::.cpu.data            8                       # number of ReadReq hits
system.cpu.dcache.ReadReq_hits::.switch_cpus.data       314829                       # number of ReadReq hits
system.cpu.dcache.ReadReq_hits::total          314837                       # number of ReadReq hits
system.cpu.dcache.ReadReq_misses::.cpu.data            5                       # number of ReadReq misses
system.cpu.dcache.ReadReq_misses::.switch_cpus.data         5188                       # number of ReadReq misses
system.cpu.dcache.ReadReq_misses::total          5193                       # number of ReadReq misses
system.cpu.dcache.ReadReq_miss_latency::.switch_cpus.data    175184864                       # number of ReadReq miss cycles
system.cpu.dcache.ReadReq_miss_latency::total    175184864                       # number of ReadReq miss cycles
system.cpu.dcache.ReadReq_accesses::.cpu.data           13                       # number of ReadReq accesses(hits+misses)
system.cpu.dcache.ReadReq_accesses::.switch_cpus.data       320017                       # number of ReadReq accesses(hits+misses)
system.cpu.dcache.ReadReq_accesses::total       320030                       # number of ReadReq accesses(hits+misses)
system.cpu.dcache.ReadReq_miss_rate::.cpu.data     0.384615                       # miss rate for ReadReq accesses
system.cpu.dcache.ReadReq_miss_rate::.switch_cpus.data     0.016212                       # miss rate for ReadReq accesses
system.cpu.dcache.ReadReq_miss_rate::total     0.016227                       # miss rate for ReadReq accesses
system.cpu.dcache.ReadReq_avg_miss_latency::.switch_cpus.data 33767.321511                       # average ReadReq miss latency
system.cpu.dcache.ReadReq_avg_miss_latency::total 33734.809166                       # average ReadReq miss latency
system.cpu.dcache.ReadReq_mshr_hits::.switch_cpus.data         2309                       # number of ReadReq MSHR hits
system.cpu.dcache.ReadReq_mshr_hits::total         2309                       # number of ReadReq MSHR hits
system.cpu.dcache.ReadReq_mshr_misses::.switch_cpus.data         2879                       # number of ReadReq MSHR misses
system.cpu.dcache.ReadReq_mshr_misses::total         2879                       # number of ReadReq MSHR misses
system.cpu.dcache.ReadReq_mshr_miss_latency::.switch_cpus.data     87091136                       # number of ReadReq MSHR miss cycles
system.cpu.dcache.ReadReq_mshr_miss_latency::total     87091136                       # number of ReadReq MSHR miss cycles
system.cpu.dcache.ReadReq_mshr_miss_rate::.switch_cpus.data     0.008996                       # mshr miss rate for ReadReq accesses
system.cpu.dcache.ReadReq_mshr_miss_rate::total     0.008996                       # mshr miss rate for ReadReq accesses
system.cpu.dcache.ReadReq_avg_mshr_miss_latency::.switch_cpus.data 30250.481417                       # average ReadReq mshr miss latency
system.cpu.dcache.ReadReq_avg_mshr_miss_latency::total 30250.481417                       # average ReadReq mshr miss latency
system.cpu.dcache.WriteReq_hits::.cpu.data            3                       # number of WriteReq hits
system.cpu.dcache.WriteReq_hits::.switch_cpus.data        91365                       # number of WriteReq hits
system.cpu.dcache.WriteReq_hits::total          91368                       # number of WriteReq hits
system.cpu.dcache.WriteReq_accesses::.cpu.data            3                       # number of WriteReq accesses(hits+misses)
system.cpu.dcache.WriteReq_accesses::.switch_cpus.data        91365                       # number of WriteReq accesses(hits+misses)
system.cpu.dcache.WriteReq_accesses::total        91368                       # number of WriteReq accesses(hits+misses)
system.cpu.dcache.power_state.pwrStateResidencyTicks::UNDEFINED 586005715463                       # Cumulative time (in ticks) in various power states
system.cpu.dcache.tags.tagsinuse           238.454765                       # Cycle average of tags in use
system.cpu.dcache.tags.total_refs               69767                       # Total number of references to valid blocks.
system.cpu.dcache.tags.sampled_refs              2628                       # Sample count of references to valid blocks.
system.cpu.dcache.tags.avg_refs             26.547565                       # Average number of references to valid blocks.
system.cpu.dcache.tags.warmup_cycle      585786276369                       # Cycle when the warmup percentage was hit.
system.cpu.dcache.tags.occ_blocks::.cpu.data     3.224276                       # Average occupied blocks per requestor
system.cpu.dcache.tags.occ_blocks::.switch_cpus.data   235.230489                       # Average occupied blocks per requestor
system.cpu.dcache.tags.occ_percent::.cpu.data     0.012595                       # Average percentage of cache occupancy
system.cpu.dcache.tags.occ_percent::.switch_cpus.data     0.918869                       # Average percentage of cache occupancy
system.cpu.dcache.tags.occ_percent::total     0.931464                       # Average percentage of cache occupancy
system.cpu.dcache.tags.occ_task_id_blocks::1024          256                       # Occupied blocks per task id
system.cpu.dcache.tags.age_task_id_blocks_1024::0          149                       # Occupied blocks per task id
system.cpu.dcache.tags.age_task_id_blocks_1024::1           78                       # Occupied blocks per task id
system.cpu.dcache.tags.age_task_id_blocks_1024::2           29                       # Occupied blocks per task id
system.cpu.dcache.tags.occ_task_id_percent::1024            1                       # Percentage of cache occupancy per task id
system.cpu.dcache.tags.tag_accesses           3294068                       # Number of tag accesses
system.cpu.dcache.tags.data_accesses          3294068                       # Number of data accesses
system.cpu.dcache.tags.power_state.pwrStateResidencyTicks::UNDEFINED 586005715463                       # Cumulative time (in ticks) in various power states
system.cpu.dtb.instHits                             0                       # ITB inst hits
system.cpu.dtb.instMisses                           0                       # ITB inst misses
system.cpu.dtb.readHits                             0                       # DTB read hits
system.cpu.dtb.readMisses                           0                       # DTB read misses
system.cpu.dtb.writeHits                            0                       # DTB write hits
system.cpu.dtb.writeMisses                          0                       # DTB write misses
system.cpu.dtb.inserts                              0                       # Number of times an entry is inserted into the TLB
system.cpu.dtb.flushTlb                             2                       # Number of times complete TLB was flushed
system.cpu.dtb.flushTlbMva                          0                       # Number of times TLB was flushed by MVA
system.cpu.dtb.flushTlbMvaAsid                      0                       # Number of times TLB was flushed by MVA & ASID
system.cpu.dtb.flushTlbAsid                         0                       # Number of times TLB was flushed by ASID
system.cpu.dtb.flushedEntries                       0                       # Number of entries that have been flushed from TLB
system.cpu.dtb.alignFaults                          0                       # Number of TLB faults due to alignment restrictions
system.cpu.dtb.prefetchFaults                       0                       # Number of TLB faults due to prefetch
system.cpu.dtb.domainFaults                         0                       # Number of TLB faults due to domain restrictions
system.cpu.dtb.permsFaults                          0                       # Number of TLB faults due to permissions restrictions
system.cpu.dtb.readAccesses                         0                       # DTB read accesses
system.cpu.dtb.writeAccesses                        0                       # DTB write accesses
system.cpu.dtb.instAccesses                         0                       # ITB inst accesses
system.cpu.dtb.hits                                 0                       # Total TLB (inst and data) hits
system.cpu.dtb.misses                               0                       # Total TLB (inst and data) misses
system.cpu.dtb.accesses                             0                       # Total TLB (inst and data) accesses
system.cpu.dtb.stage2_mmu.stage2_tlb.instHits            0                       # ITB inst hits
system.cpu.dtb.stage2_mmu.stage2_tlb.instMisses            0                       # ITB inst misses
system.cpu.dtb.stage2_mmu.stage2_tlb.readHits            0                       # DTB read hits
system.cpu.dtb.stage2_mmu.stage2_tlb.readMisses            0                       # DTB read misses
system.cpu.dtb.stage2_mmu.stage2_tlb.writeHits            0                       # DTB write hits
system.cpu.dtb.stage2_mmu.stage2_tlb.writeMisses            0                       # DTB write misses
system.cpu.dtb.stage2_mmu.stage2_tlb.inserts            0                       # Number of times an entry is inserted into the TLB
system.cpu.dtb.stage2_mmu.stage2_tlb.flushTlb            0                       # Number of times complete TLB was flushed
system.cpu.dtb.stage2_mmu.stage2_tlb.flushTlbMva            0                       # Number of times TLB was flushed by MVA
system.cpu.dtb.stage2_mmu.stage2_tlb.flushTlbMvaAsid            0                       # Number of times TLB was flushed by MVA & ASID
system.cpu.dtb.stage2_mmu.stage2_tlb.flushTlbAsid            0                       # Number of times TLB was flushed by ASID
system.cpu.dtb.stage2_mmu.stage2_tlb.flushedEntries            0                       # Number of entries that have been flushed from TLB
system.cpu.dtb.stage2_mmu.stage2_tlb.alignFaults            0                       # Number of TLB faults due to alignment restrictions
system.cpu.dtb.stage2_mmu.stage2_tlb.prefetchFaults            0                       # Number of TLB faults due to prefetch
system.cpu.dtb.stage2_mmu.stage2_tlb.domainFaults            0                       # Number of TLB faults due to domain restrictions
system.cpu.dtb.stage2_mmu.stage2_tlb.permsFaults            0                       # Number of TLB faults due to permissions restrictions
system.cpu.dtb.stage2_mmu.stage2_tlb.readAccesses            0                       # DTB read accesses
system.cpu.dtb.stage2_mmu.stage2_tlb.writeAccesses            0                       # DTB write accesses
system.cpu.dtb.stage2_mmu.stage2_tlb.instAccesses            0                       # ITB inst accesses
system.cpu.dtb.stage2_mmu.stage2_tlb.hits            0                       # Total TLB (inst and data) hits
system.cpu.dtb.stage2_mmu.stage2_tlb.misses            0                       # Total TLB (inst and data) misses
system.cpu.dtb.stage2_mmu.stage2_tlb.accesses            0                       # Total TLB (inst and data) accesses
system.cpu.dtb.stage2_mmu.stage2_tlb.walker.walks            0                       # Table walker walks requested
system.cpu.dtb.stage2_mmu.stage2_tlb.walker.requestOrigin_Requested::Data            0                       # Table walker requests started/completed, data/inst
system.cpu.dtb.stage2_mmu.stage2_tlb.walker.requestOrigin_Requested::Inst            0                       # Table walker requests started/completed, data/inst
system.cpu.dtb.stage2_mmu.stage2_tlb.walker.requestOrigin_Requested::total            0                       # Table walker requests started/completed, data/inst
system.cpu.dtb.stage2_mmu.stage2_tlb.walker.requestOrigin_Completed::Data            0                       # Table walker requests started/completed, data/inst
system.cpu.dtb.stage2_mmu.stage2_tlb.walker.requestOrigin_Completed::Inst            0                       # Table walker requests started/completed, data/inst
system.cpu.dtb.stage2_mmu.stage2_tlb.walker.requestOrigin_Completed::total            0                       # Table walker requests started/completed, data/inst
system.cpu.dtb.stage2_mmu.stage2_tlb.walker.requestOrigin::total            0                       # Table walker requests started/completed, data/inst
system.cpu.dtb.stage2_mmu.stage2_tlb.walker.power_state.pwrStateResidencyTicks::UNDEFINED 586005715463                       # Cumulative time (in ticks) in various power states
system.cpu.dtb.walker.walks                         0                       # Table walker walks requested
system.cpu.dtb.walker.requestOrigin_Requested::Data            0                       # Table walker requests started/completed, data/inst
system.cpu.dtb.walker.requestOrigin_Requested::Inst            0                       # Table walker requests started/completed, data/inst
system.cpu.dtb.walker.requestOrigin_Requested::total            0                       # Table walker requests started/completed, data/inst
system.cpu.dtb.walker.requestOrigin_Completed::Data            0                       # Table walker requests started/completed, data/inst
system.cpu.dtb.walker.requestOrigin_Completed::Inst            0                       # Table walker requests started/completed, data/inst
system.cpu.dtb.walker.requestOrigin_Completed::total            0                       # Table walker requests started/completed, data/inst
system.cpu.dtb.walker.requestOrigin::total            0                       # Table walker requests started/completed, data/inst
system.cpu.dtb.walker.power_state.pwrStateResidencyTicks::UNDEFINED 586005715463                       # Cumulative time (in ticks) in various power states
system.cpu.icache.demand_hits::.cpu.inst           28                       # number of demand (read+write) hits
system.cpu.icache.demand_hits::.switch_cpus.inst       156730                       # number of demand (read+write) hits
system.cpu.icache.demand_hits::total           156758                       # number of demand (read+write) hits
system.cpu.icache.overall_hits::.cpu.inst           28                       # number of overall hits
system.cpu.icache.overall_hits::.switch_cpus.inst       156730                       # number of overall hits
system.cpu.icache.overall_hits::total          156758                       # number of overall hits
system.cpu.icache.demand_misses::.cpu.inst            2                       # number of demand (read+write) misses
system.cpu.icache.demand_misses::.switch_cpus.inst           21                       # number of demand (read+write) misses
system.cpu.icache.demand_misses::total             23                       # number of demand (read+write) misses
system.cpu.icache.overall_misses::.cpu.inst            2                       # number of overall misses
system.cpu.icache.overall_misses::.switch_cpus.inst           21                       # number of overall misses
system.cpu.icache.overall_misses::total            23                       # number of overall misses
system.cpu.icache.demand_miss_latency::.switch_cpus.inst      1387285                       # number of demand (read+write) miss cycles
system.cpu.icache.demand_miss_latency::total      1387285                       # number of demand (read+write) miss cycles
system.cpu.icache.overall_miss_latency::.switch_cpus.inst      1387285                       # number of overall miss cycles
system.cpu.icache.overall_miss_latency::total      1387285                       # number of overall miss cycles
system.cpu.icache.demand_accesses::.cpu.inst           30                       # number of demand (read+write) accesses
system.cpu.icache.demand_accesses::.switch_cpus.inst       156751                       # number of demand (read+write) accesses
system.cpu.icache.demand_accesses::total       156781                       # number of demand (read+write) accesses
system.cpu.icache.overall_accesses::.cpu.inst           30                       # number of overall (read+write) accesses
system.cpu.icache.overall_accesses::.switch_cpus.inst       156751                       # number of overall (read+write) accesses
system.cpu.icache.overall_accesses::total       156781                       # number of overall (read+write) accesses
system.cpu.icache.demand_miss_rate::.cpu.inst     0.066667                       # miss rate for demand accesses
system.cpu.icache.demand_miss_rate::.switch_cpus.inst     0.000134                       # miss rate for demand accesses
system.cpu.icache.demand_miss_rate::total     0.000147                       # miss rate for demand accesses
system.cpu.icache.overall_miss_rate::.cpu.inst     0.066667                       # miss rate for overall accesses
system.cpu.icache.overall_miss_rate::.switch_cpus.inst     0.000134                       # miss rate for overall accesses
system.cpu.icache.overall_miss_rate::total     0.000147                       # miss rate for overall accesses
system.cpu.icache.demand_avg_miss_latency::.switch_cpus.inst 66061.190476                       # average overall miss latency
system.cpu.icache.demand_avg_miss_latency::total 60316.739130                       # average overall miss latency
system.cpu.icache.overall_avg_miss_latency::.switch_cpus.inst 66061.190476                       # average overall miss latency
system.cpu.icache.overall_avg_miss_latency::total 60316.739130                       # average overall miss latency
system.cpu.icache.blocked_cycles::no_mshrs            0                       # number of cycles access was blocked
system.cpu.icache.blocked_cycles::no_targets            0                       # number of cycles access was blocked
system.cpu.icache.blocked::no_mshrs                 0                       # number of cycles access was blocked
system.cpu.icache.blocked::no_targets               0                       # number of cycles access was blocked
system.cpu.icache.avg_blocked_cycles::no_mshrs          nan                       # average number of cycles each access was blocked
system.cpu.icache.avg_blocked_cycles::no_targets          nan                       # average number of cycles each access was blocked
system.cpu.icache.demand_mshr_hits::.switch_cpus.inst           10                       # number of demand (read+write) MSHR hits
system.cpu.icache.demand_mshr_hits::total           10                       # number of demand (read+write) MSHR hits
system.cpu.icache.overall_mshr_hits::.switch_cpus.inst           10                       # number of overall MSHR hits
system.cpu.icache.overall_mshr_hits::total           10                       # number of overall MSHR hits
system.cpu.icache.demand_mshr_misses::.switch_cpus.inst           11                       # number of demand (read+write) MSHR misses
system.cpu.icache.demand_mshr_misses::total           11                       # number of demand (read+write) MSHR misses
system.cpu.icache.overall_mshr_misses::.switch_cpus.inst           11                       # number of overall MSHR misses
system.cpu.icache.overall_mshr_misses::total           11                       # number of overall MSHR misses
system.cpu.icache.demand_mshr_miss_latency::.switch_cpus.inst       818805                       # number of demand (read+write) MSHR miss cycles
system.cpu.icache.demand_mshr_miss_latency::total       818805                       # number of demand (read+write) MSHR miss cycles
system.cpu.icache.overall_mshr_miss_latency::.switch_cpus.inst       818805                       # number of overall MSHR miss cycles
system.cpu.icache.overall_mshr_miss_latency::total       818805                       # number of overall MSHR miss cycles
system.cpu.icache.demand_mshr_miss_rate::.switch_cpus.inst     0.000070                       # mshr miss rate for demand accesses
system.cpu.icache.demand_mshr_miss_rate::total     0.000070                       # mshr miss rate for demand accesses
system.cpu.icache.overall_mshr_miss_rate::.switch_cpus.inst     0.000070                       # mshr miss rate for overall accesses
system.cpu.icache.overall_mshr_miss_rate::total     0.000070                       # mshr miss rate for overall accesses
system.cpu.icache.demand_avg_mshr_miss_latency::.switch_cpus.inst 74436.818182                       # average overall mshr miss latency
system.cpu.icache.demand_avg_mshr_miss_latency::total 74436.818182                       # average overall mshr miss latency
system.cpu.icache.overall_avg_mshr_miss_latency::.switch_cpus.inst 74436.818182                       # average overall mshr miss latency
system.cpu.icache.overall_avg_mshr_miss_latency::total 74436.818182                       # average overall mshr miss latency
system.cpu.icache.replacements                      0                       # number of replacements
system.cpu.icache.ReadReq_hits::.cpu.inst           28                       # number of ReadReq hits
system.cpu.icache.ReadReq_hits::.switch_cpus.inst       156730                       # number of ReadReq hits
system.cpu.icache.ReadReq_hits::total          156758                       # number of ReadReq hits
system.cpu.icache.ReadReq_misses::.cpu.inst            2                       # number of ReadReq misses
system.cpu.icache.ReadReq_misses::.switch_cpus.inst           21                       # number of ReadReq misses
system.cpu.icache.ReadReq_misses::total            23                       # number of ReadReq misses
system.cpu.icache.ReadReq_miss_latency::.switch_cpus.inst      1387285                       # number of ReadReq miss cycles
system.cpu.icache.ReadReq_miss_latency::total      1387285                       # number of ReadReq miss cycles
system.cpu.icache.ReadReq_accesses::.cpu.inst           30                       # number of ReadReq accesses(hits+misses)
system.cpu.icache.ReadReq_accesses::.switch_cpus.inst       156751                       # number of ReadReq accesses(hits+misses)
system.cpu.icache.ReadReq_accesses::total       156781                       # number of ReadReq accesses(hits+misses)
system.cpu.icache.ReadReq_miss_rate::.cpu.inst     0.066667                       # miss rate for ReadReq accesses
system.cpu.icache.ReadReq_miss_rate::.switch_cpus.inst     0.000134                       # miss rate for ReadReq accesses
system.cpu.icache.ReadReq_miss_rate::total     0.000147                       # miss rate for ReadReq accesses
system.cpu.icache.ReadReq_avg_miss_latency::.switch_cpus.inst 66061.190476                       # average ReadReq miss latency
system.cpu.icache.ReadReq_avg_miss_latency::total 60316.739130                       # average ReadReq miss latency
system.cpu.icache.ReadReq_mshr_hits::.switch_cpus.inst           10                       # number of ReadReq MSHR hits
system.cpu.icache.ReadReq_mshr_hits::total           10                       # number of ReadReq MSHR hits
system.cpu.icache.ReadReq_mshr_misses::.switch_cpus.inst           11                       # number of ReadReq MSHR misses
system.cpu.icache.ReadReq_mshr_misses::total           11                       # number of ReadReq MSHR misses
system.cpu.icache.ReadReq_mshr_miss_latency::.switch_cpus.inst       818805                       # number of ReadReq MSHR miss cycles
system.cpu.icache.ReadReq_mshr_miss_latency::total       818805                       # number of ReadReq MSHR miss cycles
system.cpu.icache.ReadReq_mshr_miss_rate::.switch_cpus.inst     0.000070                       # mshr miss rate for ReadReq accesses
system.cpu.icache.ReadReq_mshr_miss_rate::total     0.000070                       # mshr miss rate for ReadReq accesses
system.cpu.icache.ReadReq_avg_mshr_miss_latency::.switch_cpus.inst 74436.818182                       # average ReadReq mshr miss latency
system.cpu.icache.ReadReq_avg_mshr_miss_latency::total 74436.818182                       # average ReadReq mshr miss latency
system.cpu.icache.power_state.pwrStateResidencyTicks::UNDEFINED 586005715463                       # Cumulative time (in ticks) in various power states
system.cpu.icache.tags.tagsinuse            12.976128                       # Cycle average of tags in use
system.cpu.icache.tags.total_refs                   0                       # Total number of references to valid blocks.
system.cpu.icache.tags.sampled_refs                 0                       # Sample count of references to valid blocks.
system.cpu.icache.tags.avg_refs                   nan                       # Average number of references to valid blocks.
system.cpu.icache.tags.warmup_cycle      585786276369                       # Cycle when the warmup percentage was hit.
system.cpu.icache.tags.occ_blocks::.cpu.inst     1.999986                       # Average occupied blocks per requestor
system.cpu.icache.tags.occ_blocks::.switch_cpus.inst    10.976142                       # Average occupied blocks per requestor
system.cpu.icache.tags.occ_percent::.cpu.inst     0.003906                       # Average percentage of cache occupancy
system.cpu.icache.tags.occ_percent::.switch_cpus.inst     0.021438                       # Average percentage of cache occupancy
system.cpu.icache.tags.occ_percent::total     0.025344                       # Average percentage of cache occupancy
system.cpu.icache.tags.occ_task_id_blocks::1024           13                       # Occupied blocks per task id
system.cpu.icache.tags.age_task_id_blocks_1024::2           13                       # Occupied blocks per task id
system.cpu.icache.tags.occ_task_id_percent::1024     0.025391                       # Percentage of cache occupancy per task id
system.cpu.icache.tags.tag_accesses           1254261                       # Number of tag accesses
system.cpu.icache.tags.data_accesses          1254261                       # Number of data accesses
system.cpu.icache.tags.power_state.pwrStateResidencyTicks::UNDEFINED 586005715463                       # Cumulative time (in ticks) in various power states
system.cpu.itb.instHits                             0                       # ITB inst hits
system.cpu.itb.instMisses                           0                       # ITB inst misses
system.cpu.itb.readHits                             0                       # DTB read hits
system.cpu.itb.readMisses                           0                       # DTB read misses
system.cpu.itb.writeHits                            0                       # DTB write hits
system.cpu.itb.writeMisses                          0                       # DTB write misses
system.cpu.itb.inserts                              0                       # Number of times an entry is inserted into the TLB
system.cpu.itb.flushTlb                             2                       # Number of times complete TLB was flushed
system.cpu.itb.flushTlbMva                          0                       # Number of times TLB was flushed by MVA
system.cpu.itb.flushTlbMvaAsid                      0                       # Number of times TLB was flushed by MVA & ASID
system.cpu.itb.flushTlbAsid                         0                       # Number of times TLB was flushed by ASID
system.cpu.itb.flushedEntries                       0                       # Number of entries that have been flushed from TLB
system.cpu.itb.alignFaults                          0                       # Number of TLB faults due to alignment restrictions
system.cpu.itb.prefetchFaults                       0                       # Number of TLB faults due to prefetch
system.cpu.itb.domainFaults                         0                       # Number of TLB faults due to domain restrictions
system.cpu.itb.permsFaults                          0                       # Number of TLB faults due to permissions restrictions
system.cpu.itb.readAccesses                         0                       # DTB read accesses
system.cpu.itb.writeAccesses                        0                       # DTB write accesses
system.cpu.itb.instAccesses                         0                       # ITB inst accesses
system.cpu.itb.hits                                 0                       # Total TLB (inst and data) hits
system.cpu.itb.misses                               0                       # Total TLB (inst and data) misses
system.cpu.itb.accesses                             0                       # Total TLB (inst and data) accesses
system.cpu.itb.stage2_mmu.stage2_tlb.instHits            0                       # ITB inst hits
system.cpu.itb.stage2_mmu.stage2_tlb.instMisses            0                       # ITB inst misses
system.cpu.itb.stage2_mmu.stage2_tlb.readHits            0                       # DTB read hits
system.cpu.itb.stage2_mmu.stage2_tlb.readMisses            0                       # DTB read misses
system.cpu.itb.stage2_mmu.stage2_tlb.writeHits            0                       # DTB write hits
system.cpu.itb.stage2_mmu.stage2_tlb.writeMisses            0                       # DTB write misses
system.cpu.itb.stage2_mmu.stage2_tlb.inserts            0                       # Number of times an entry is inserted into the TLB
system.cpu.itb.stage2_mmu.stage2_tlb.flushTlb            0                       # Number of times complete TLB was flushed
system.cpu.itb.stage2_mmu.stage2_tlb.flushTlbMva            0                       # Number of times TLB was flushed by MVA
system.cpu.itb.stage2_mmu.stage2_tlb.flushTlbMvaAsid            0                       # Number of times TLB was flushed by MVA & ASID
system.cpu.itb.stage2_mmu.stage2_tlb.flushTlbAsid            0                       # Number of times TLB was flushed by ASID
system.cpu.itb.stage2_mmu.stage2_tlb.flushedEntries            0                       # Number of entries that have been flushed from TLB
system.cpu.itb.stage2_mmu.stage2_tlb.alignFaults            0                       # Number of TLB faults due to alignment restrictions
system.cpu.itb.stage2_mmu.stage2_tlb.prefetchFaults            0                       # Number of TLB faults due to prefetch
system.cpu.itb.stage2_mmu.stage2_tlb.domainFaults            0                       # Number of TLB faults due to domain restrictions
system.cpu.itb.stage2_mmu.stage2_tlb.permsFaults            0                       # Number of TLB faults due to permissions restrictions
system.cpu.itb.stage2_mmu.stage2_tlb.readAccesses            0                       # DTB read accesses
system.cpu.itb.stage2_mmu.stage2_tlb.writeAccesses            0                       # DTB write accesses
system.cpu.itb.stage2_mmu.stage2_tlb.instAccesses            0                       # ITB inst accesses
system.cpu.itb.stage2_mmu.stage2_tlb.hits            0                       # Total TLB (inst and data) hits
system.cpu.itb.stage2_mmu.stage2_tlb.misses            0                       # Total TLB (inst and data) misses
system.cpu.itb.stage2_mmu.stage2_tlb.accesses            0                       # Total TLB (inst and data) accesses
system.cpu.itb.stage2_mmu.stage2_tlb.walker.walks            0                       # Table walker walks requested
system.cpu.itb.stage2_mmu.stage2_tlb.walker.requestOrigin_Requested::Data            0                       # Table walker requests started/completed, data/inst
system.cpu.itb.stage2_mmu.stage2_tlb.walker.requestOrigin_Requested::Inst            0                       # Table walker requests started/completed, data/inst
system.cpu.itb.stage2_mmu.stage2_tlb.walker.requestOrigin_Requested::total            0                       # Table walker requests started/completed, data/inst
system.cpu.itb.stage2_mmu.stage2_tlb.walker.requestOrigin_Completed::Data            0                       # Table walker requests started/completed, data/inst
system.cpu.itb.stage2_mmu.stage2_tlb.walker.requestOrigin_Completed::Inst            0                       # Table walker requests started/completed, data/inst
system.cpu.itb.stage2_mmu.stage2_tlb.walker.requestOrigin_Completed::total            0                       # Table walker requests started/completed, data/inst
system.cpu.itb.stage2_mmu.stage2_tlb.walker.requestOrigin::total            0                       # Table walker requests started/completed, data/inst
system.cpu.itb.stage2_mmu.stage2_tlb.walker.power_state.pwrStateResidencyTicks::UNDEFINED 586005715463                       # Cumulative time (in ticks) in various power states
system.cpu.itb.walker.walks                         0                       # Table walker walks requested
system.cpu.itb.walker.requestOrigin_Requested::Data            0                       # Table walker requests started/completed, data/inst
system.cpu.itb.walker.requestOrigin_Requested::Inst            0                       # Table walker requests started/completed, data/inst
system.cpu.itb.walker.requestOrigin_Requested::total            0                       # Table walker requests started/completed, data/inst
system.cpu.itb.walker.requestOrigin_Completed::Data            0                       # Table walker requests started/completed, data/inst
system.cpu.itb.walker.requestOrigin_Completed::Inst            0                       # Table walker requests started/completed, data/inst
system.cpu.itb.walker.requestOrigin_Completed::total            0                       # Table walker requests started/completed, data/inst
system.cpu.itb.walker.requestOrigin::total            0                       # Table walker requests started/completed, data/inst
system.cpu.itb.walker.power_state.pwrStateResidencyTicks::UNDEFINED 586005715463                       # Cumulative time (in ticks) in various power states
system.cpu.power_state.numTransitions               1                       # Number of power state transitions
system.cpu.power_state.pwrStateResidencyTicks::ON 585786286000                       # Cumulative time (in ticks) in various power states
system.cpu.power_state.pwrStateResidencyTicks::OFF    219429463                       # Cumulative time (in ticks) in various power states
system.cpu.thread_0.numInsts                        0                       # Number of Instructions committed
system.cpu.thread_0.numOps                          0                       # Number of Ops committed
system.cpu.thread_0.numMemRefs                      0                       # Number of Memory References
system.cpu_clk_domain.clock                       323                       # Clock period in ticks
system.cpu_voltage_domain.voltage                   1                       # Voltage in Volts
system.l2.demand_hits::.switch_cpus.data         1998                       # number of demand (read+write) hits
system.l2.demand_hits::total                     1998                       # number of demand (read+write) hits
system.l2.overall_hits::.switch_cpus.data         1998                       # number of overall hits
system.l2.overall_hits::total                    1998                       # number of overall hits
system.l2.demand_misses::.cpu.inst                  2                       # number of demand (read+write) misses
system.l2.demand_misses::.cpu.data                  5                       # number of demand (read+write) misses
system.l2.demand_misses::.switch_cpus.inst           11                       # number of demand (read+write) misses
system.l2.demand_misses::.switch_cpus.data          881                       # number of demand (read+write) misses
system.l2.demand_misses::total                    899                       # number of demand (read+write) misses
system.l2.overall_misses::.cpu.inst                 2                       # number of overall misses
system.l2.overall_misses::.cpu.data                 5                       # number of overall misses
system.l2.overall_misses::.switch_cpus.inst           11                       # number of overall misses
system.l2.overall_misses::.switch_cpus.data          881                       # number of overall misses
system.l2.overall_misses::total                   899                       # number of overall misses
system.l2.demand_miss_latency::.switch_cpus.inst       808146                       # number of demand (read+write) miss cycles
system.l2.demand_miss_latency::.switch_cpus.data     70704700                       # number of demand (read+write) miss cycles
system.l2.demand_miss_latency::total         71512846                       # number of demand (read+write) miss cycles
system.l2.overall_miss_latency::.switch_cpus.inst       808146                       # number of overall miss cycles
system.l2.overall_miss_latency::.switch_cpus.data     70704700                       # number of overall miss cycles
system.l2.overall_miss_latency::total        71512846                       # number of overall miss cycles
system.l2.demand_accesses::.cpu.inst                2                       # number of demand (read+write) accesses
system.l2.demand_accesses::.cpu.data                5                       # number of demand (read+write) accesses
system.l2.demand_accesses::.switch_cpus.inst           11                       # number of demand (read+write) accesses
system.l2.demand_accesses::.switch_cpus.data         2879                       # number of demand (read+write) accesses
system.l2.demand_accesses::total                 2897                       # number of demand (read+write) accesses
system.l2.overall_accesses::.cpu.inst               2                       # number of overall (read+write) accesses
system.l2.overall_accesses::.cpu.data               5                       # number of overall (read+write) accesses
system.l2.overall_accesses::.switch_cpus.inst           11                       # number of overall (read+write) accesses
[...]
system.switch_cpus.dtb.walker.requestOrigin_Completed::total            0                       # Table walker requests started/completed, data/inst
system.switch_cpus.dtb.walker.requestOrigin::total            0                       # Table walker requests started/completed, data/inst
system.switch_cpus.dtb.walker.power_state.pwrStateResidencyTicks::UNDEFINED   1745941616                       # Cumulative time (in ticks) in various power states
system.switch_cpus.fetch.icacheStallCycles       986756                       # Number of cycles fetch is stalled on an Icache miss
system.switch_cpus.fetch.insts               10467923                       # Number of instructions fetch has processed
system.switch_cpus.fetch.branches             1630547                       # Number of branches that fetch encountered
system.switch_cpus.fetch.predictedBranches       868496                       # Number of branches that fetch has predicted taken
system.switch_cpus.fetch.cycles               4410273                       # Number of cycles fetch has run and was not squashing or blocked
system.switch_cpus.fetch.squashCycles           13628                       # Number of cycles fetch has spent squashing
system.switch_cpus.fetch.miscStallCycles            1                       # Number of cycles fetch has spent waiting on interrupts,or bad addresses, or out of MSHRs
system.switch_cpus.fetch.pendingTrapStallCycles           12                       # Number of stall cycles due to pending traps
system.switch_cpus.fetch.cacheLines            981109                       # Number of cache lines fetched
system.switch_cpus.fetch.icacheSquashes          1487                       # Number of outstanding Icache misses that were squashed
system.switch_cpus.fetch.nisnDist::samples      5403856                       # Number of instructions fetched each cycle (Total)
system.switch_cpus.fetch.nisnDist::mean      1.937121                       # Number of instructions fetched each cycle (Total)
system.switch_cpus.fetch.nisnDist::stdev     2.879485                       # Number of instructions fetched each cycle (Total)
system.switch_cpus.fetch.nisnDist::underflows            0      0.00%      0.00% # Number of instructions fetched each cycle (Total)
system.switch_cpus.fetch.nisnDist::0          3350737     62.01%     62.01% # Number of instructions fetched each cycle (Total)
system.switch_cpus.fetch.nisnDist::1           206545      3.82%     65.83% # Number of instructions fetched each cycle (Total)
system.switch_cpus.fetch.nisnDist::2           126868      2.35%     68.18% # Number of instructions fetched each cycle (Total)
system.switch_cpus.fetch.nisnDist::3           239579      4.43%     72.61% # Number of instructions fetched each cycle (Total)
system.switch_cpus.fetch.nisnDist::4           386972      7.16%     79.77% # Number of instructions fetched each cycle (Total)
system.switch_cpus.fetch.nisnDist::5            90320      1.67%     81.44% # Number of instructions fetched each cycle (Total)
system.switch_cpus.fetch.nisnDist::6           290531      5.38%     86.82% # Number of instructions fetched each cycle (Total)
system.switch_cpus.fetch.nisnDist::7           152200      2.82%     89.64% # Number of instructions fetched each cycle (Total)
system.switch_cpus.fetch.nisnDist::8           560104     10.36%    100.00% # Number of instructions fetched each cycle (Total)
system.switch_cpus.fetch.nisnDist::overflows            0      0.00%    100.00% # Number of instructions fetched each cycle (Total)
system.switch_cpus.fetch.nisnDist::min_value            0                       # Number of instructions fetched each cycle (Total)
system.switch_cpus.fetch.nisnDist::max_value            8                       # Number of instructions fetched each cycle (Total)
system.switch_cpus.fetch.nisnDist::total      5403856                       # Number of instructions fetched each cycle (Total)
system.switch_cpus.fetch.branchRate          0.301652                       # Number of branch fetches per cycle
system.switch_cpus.fetch.rate                1.936571                       # Number of inst fetches per cycle
system.switch_cpus.itb.instHits                     0                       # ITB inst hits
system.switch_cpus.itb.instMisses                   0                       # ITB inst misses
system.switch_cpus.itb.readHits                     0                       # DTB read hits
system.switch_cpus.itb.readMisses                   0                       # DTB read misses
system.switch_cpus.itb.writeHits                    0                       # DTB write hits
system.switch_cpus.itb.writeMisses                  0                       # DTB write misses
system.switch_cpus.itb.inserts                      0                       # Number of times an entry is inserted into the TLB
system.switch_cpus.itb.flushTlb                     0                       # Number of times complete TLB was flushed
system.switch_cpus.itb.flushTlbMva                  0                       # Number of times TLB was flushed by MVA
system.switch_cpus.itb.flushTlbMvaAsid              0                       # Number of times TLB was flushed by MVA & ASID
system.switch_cpus.itb.flushTlbAsid                 0                       # Number of times TLB was flushed by ASID
system.switch_cpus.itb.flushedEntries               0                       # Number of entries that have been flushed from TLB
system.switch_cpus.itb.alignFaults                  0                       # Number of TLB faults due to alignment restrictions
system.switch_cpus.itb.prefetchFaults               0                       # Number of TLB faults due to prefetch
system.switch_cpus.itb.domainFaults                 0                       # Number of TLB faults due to domain restrictions
system.switch_cpus.itb.permsFaults                  0                       # Number of TLB faults due to permissions restrictions
system.switch_cpus.itb.readAccesses                 0                       # DTB read accesses
system.switch_cpus.itb.writeAccesses                0                       # DTB write accesses
system.switch_cpus.itb.instAccesses                 0                       # ITB inst accesses
system.switch_cpus.itb.hits                         0                       # Total TLB (inst and data) hits
system.switch_cpus.itb.misses                       0                       # Total TLB (inst and data) misses
system.switch_cpus.itb.accesses                     0                       # Total TLB (inst and data) accesses
system.switch_cpus.itb.stage2_mmu.stage2_tlb.instHits            0                       # ITB inst hits
system.switch_cpus.itb.stage2_mmu.stage2_tlb.instMisses            0                       # ITB inst misses
system.switch_cpus.itb.stage2_mmu.stage2_tlb.readHits            0                       # DTB read hits
system.switch_cpus.itb.stage2_mmu.stage2_tlb.readMisses            0                       # DTB read misses
system.switch_cpus.itb.stage2_mmu.stage2_tlb.writeHits            0                       # DTB write hits
system.switch_cpus.itb.stage2_mmu.stage2_tlb.writeMisses            0                       # DTB write misses
system.switch_cpus.itb.stage2_mmu.stage2_tlb.inserts            0                       # Number of times an entry is inserted into the TLB
system.switch_cpus.itb.stage2_mmu.stage2_tlb.flushTlb            0                       # Number of times complete TLB was flushed
system.switch_cpus.itb.stage2_mmu.stage2_tlb.flushTlbMva            0                       # Number of times TLB was flushed by MVA
system.switch_cpus.itb.stage2_mmu.stage2_tlb.flushTlbMvaAsid            0                       # Number of times TLB was flushed by MVA & ASID
system.switch_cpus.itb.stage2_mmu.stage2_tlb.flushTlbAsid            0                       # Number of times TLB was flushed by ASID
system.switch_cpus.itb.stage2_mmu.stage2_tlb.flushedEntries            0                       # Number of entries that have been flushed from TLB
system.switch_cpus.itb.stage2_mmu.stage2_tlb.alignFaults            0                       # Number of TLB faults due to alignment restrictions
system.switch_cpus.itb.stage2_mmu.stage2_tlb.prefetchFaults            0                       # Number of TLB faults due to prefetch
system.switch_cpus.itb.stage2_mmu.stage2_tlb.domainFaults            0                       # Number of TLB faults due to domain restrictions
system.switch_cpus.itb.stage2_mmu.stage2_tlb.permsFaults            0                       # Number of TLB faults due to permissions restrictions
system.switch_cpus.itb.stage2_mmu.stage2_tlb.readAccesses            0                       # DTB read accesses
system.switch_cpus.itb.stage2_mmu.stage2_tlb.writeAccesses            0                       # DTB write accesses
system.switch_cpus.itb.stage2_mmu.stage2_tlb.instAccesses            0                       # ITB inst accesses
system.switch_cpus.itb.stage2_mmu.stage2_tlb.hits            0                       # Total TLB (inst and data) hits
system.switch_cpus.itb.stage2_mmu.stage2_tlb.misses            0                       # Total TLB (inst and data) misses
system.switch_cpus.itb.stage2_mmu.stage2_tlb.accesses            0                       # Total TLB (inst and data) accesses
system.switch_cpus.itb.stage2_mmu.stage2_tlb.walker.walks            0                       # Table walker walks requested
system.switch_cpus.itb.stage2_mmu.stage2_tlb.walker.requestOrigin_Requested::Data            0                       # Table walker requests started/completed, data/inst
system.switch_cpus.itb.stage2_mmu.stage2_tlb.walker.requestOrigin_Requested::Inst            0                       # Table walker requests started/completed, data/inst
system.switch_cpus.itb.stage2_mmu.stage2_tlb.walker.requestOrigin_Requested::total            0                       # Table walker requests started/completed, data/inst
system.switch_cpus.itb.stage2_mmu.stage2_tlb.walker.requestOrigin_Completed::Data            0                       # Table walker requests started/completed, data/inst
system.switch_cpus.itb.stage2_mmu.stage2_tlb.walker.requestOrigin_Completed::Inst            0                       # Table walker requests started/completed, data/inst
system.switch_cpus.itb.stage2_mmu.stage2_tlb.walker.requestOrigin_Completed::total            0                       # Table walker requests started/completed, data/inst
system.switch_cpus.itb.stage2_mmu.stage2_tlb.walker.requestOrigin::total            0                       # Table walker requests started/completed, data/inst
system.switch_cpus.itb.stage2_mmu.stage2_tlb.walker.power_state.pwrStateResidencyTicks::UNDEFINED   1745941616                       # Cumulative time (in ticks) in various power states
system.switch_cpus.itb.walker.walks                 0                       # Table walker walks requested
system.switch_cpus.itb.walker.requestOrigin_Requested::Data            0                       # Table walker requests started/completed, data/inst
system.switch_cpus.itb.walker.requestOrigin_Requested::Inst            0                       # Table walker requests started/completed, data/inst
system.switch_cpus.itb.walker.requestOrigin_Requested::total            0                       # Table walker requests started/completed, data/inst
system.switch_cpus.itb.walker.requestOrigin_Completed::Data            0                       # Table walker requests started/completed, data/inst
system.switch_cpus.itb.walker.requestOrigin_Completed::Inst            0                       # Table walker requests started/completed, data/inst
system.switch_cpus.itb.walker.requestOrigin_Completed::total            0                       # Table walker requests started/completed, data/inst
system.switch_cpus.itb.walker.requestOrigin::total            0                       # Table walker requests started/completed, data/inst
system.switch_cpus.itb.walker.power_state.pwrStateResidencyTicks::UNDEFINED   1745941616                       # Cumulative time (in ticks) in various power states
system.switch_cpus.lsq0.forwLoads             1295359                       # Number of loads that had data forwarded from stores
system.switch_cpus.lsq0.squashedLoads           87679                       # Number of loads squashed
system.switch_cpus.lsq0.ignoredResponses          149                       # Number of memory responses ignored because the instruction is squashed
system.switch_cpus.lsq0.memOrderViolation           94                       # Number of memory ordering violations
system.switch_cpus.lsq0.squashedStores          15399                       # Number of stores squashed
system.switch_cpus.lsq0.rescheduledLoads            0                       # Number of loads that were rescheduled
system.switch_cpus.lsq0.blockedByCache             13                       # Number of times an access to memory failed due to the cache being blocked
system.switch_cpus.power_state.pwrStateResidencyTicks::OFF   1745941616                       # Cumulative time (in ticks) in various power states
system.switch_cpus.rename.squashCycles           6807                       # Number of cycles rename is squashing
system.switch_cpus.rename.idleCycles           537328                       # Number of cycles rename is idle
system.switch_cpus.rename.blockCycles          413974                       # Number of cycles rename is blocking
system.switch_cpus.rename.serializeStallCycles            0                       # count of cycles rename stalledfor serializing inst
system.switch_cpus.rename.runCycles           1360934                       # Number of cycles rename is running
system.switch_cpus.rename.unblockCycles       3084813                       # Number of cycles rename is unblocking
system.switch_cpus.rename.renamedInsts       10225342                       # Number of instructions processed by rename
system.switch_cpus.rename.IQFullEvents          50798                       # Number of times rename has blocked due to IQ full
system.switch_cpus.rename.LQFullEvents        3005865                       # Number of times rename has blocked due to LQ full
system.switch_cpus.rename.SQFullEvents          25047                       # Number of times rename has blocked due to SQ full
system.switch_cpus.rename.renamedOperands     12881013                       # Number of destination operands rename has renamed
system.switch_cpus.rename.lookups            15361981                       # Number of register rename lookups that rename has made
system.switch_cpus.rename.intLookups         10608895                       # Number of integer rename lookups
system.switch_cpus.rename.committedMaps      12617797                       # Number of HB maps that are committed
system.switch_cpus.rename.undoneMaps           263205                       # Number of HB maps that are undone due to squashing
system.switch_cpus.rename.serializing               0                       # count of serializing insts renamed
system.switch_cpus.rename.tempSerializing            0                       # count of temporary serializing insts renamed
system.switch_cpus.rename.skidInsts           1684362                       # count of insts added to the skid buffer
system.switch_cpus.rob.reads                 14701889                       # The number of ROB reads
system.switch_cpus.rob.writes                20435407                       # The number of ROB writes
system.switch_cpus.thread_0.numInsts         10000000                       # Number of Instructions committed
system.switch_cpus.thread_0.numOps           10000001                       # Number of Ops committed
system.switch_cpus.thread_0.numMemRefs              0                       # Number of Memory References
system.tol2bus.trans_dist::ReadResp            186443                       # Transaction distribution
system.tol2bus.trans_dist::WritebackDirty        89329                       # Transaction distribution
system.tol2bus.trans_dist::CleanEvict          104794                       # Transaction distribution
system.tol2bus.trans_dist::HardPFReq             8340                       # Transaction distribution
system.tol2bus.trans_dist::ReadExReq             5377                       # Transaction distribution
system.tol2bus.trans_dist::ReadExResp            5377                       # Transaction distribution
system.tol2bus.trans_dist::ReadCleanReq            10                       # Transaction distribution
system.tol2bus.trans_dist::ReadSharedReq       186434                       # Transaction distribution
system.tol2bus.pkt_count_system.cpu.icache.mem_side_port::system.l2.cpu_side_port           20                       # Packet count per connected requestor and responder (bytes)
system.tol2bus.pkt_count_system.cpu.dcache.mem_side_port::system.l2.cpu_side_port       575431                       # Packet count per connected requestor and responder (bytes)
system.tol2bus.pkt_count::total                575451                       # Packet count per connected requestor and responder (bytes)
system.tol2bus.pkt_size_system.cpu.icache.mem_side_port::system.l2.cpu_side_port         1280                       # Cumulative packet size per connected requestor and responder (bytes)
system.tol2bus.pkt_size_system.cpu.dcache.mem_side_port::system.l2.cpu_side_port     35985408                       # Cumulative packet size per connected requestor and responder (bytes)
system.tol2bus.pkt_size::total               35986688                       # Cumulative packet size per connected requestor and responder (bytes)
system.tol2bus.snoops                           10653                       # Total snoops (count)
system.tol2bus.snoopTraffic                       384                       # Total snoop traffic (bytes)
system.tol2bus.snoop_fanout::samples           202474                       # Request fanout histogram
system.tol2bus.snoop_fanout::mean            0.000123                       # Request fanout histogram
system.tol2bus.snoop_fanout::stdev           0.011111                       # Request fanout histogram
system.tol2bus.snoop_fanout::underflows             0      0.00%      0.00% # Request fanout histogram
system.tol2bus.snoop_fanout::0                 202449     99.99%     99.99% # Request fanout histogram
system.tol2bus.snoop_fanout::1                     25      0.01%    100.00% # Request fanout histogram
system.tol2bus.snoop_fanout::2                      0      0.00%    100.00% # Request fanout histogram
system.tol2bus.snoop_fanout::overflows              0      0.00%    100.00% # Request fanout histogram
system.tol2bus.snoop_fanout::min_value              0                       # Request fanout histogram
system.tol2bus.snoop_fanout::max_value              1                       # Request fanout histogram
system.tol2bus.snoop_fanout::total             202474                       # Request fanout histogram
system.tol2bus.power_state.pwrStateResidencyTicks::UNDEFINED   1745941616                       # Cumulative time (in ticks) in various power states
system.tol2bus.reqLayer0.occupancy          239322005                       # Layer occupancy (ticks)
system.tol2bus.reqLayer0.utilization             13.7                       # Layer utilization (%)
system.tol2bus.respLayer0.occupancy             16472                       # Layer occupancy (ticks)
system.tol2bus.respLayer0.utilization             0.0                       # Layer utilization (%)
system.tol2bus.respLayer1.occupancy         309773150                       # Layer occupancy (ticks)
system.tol2bus.respLayer1.utilization            17.7                       # Layer utilization (%)
system.voltage_domain.voltage                       1                       # Voltage in Volts

---------- End Simulation Statistics   ----------
