
---------- Begin Simulation Statistics ----------
final_tick                               3280454222000                       # Number of ticks from beginning of simulation (restored from checkpoints and never reset)
host_inst_rate                                 164627                       # Simulator instruction rate (inst/s)
host_mem_usage                               16976084                       # Number of bytes of host memory used
host_op_rate                                   168267                       # Simulator op (including micro ops) rate (op/s)
host_seconds                                     6.07                       # Real time elapsed on the host
host_tick_rate                              127088869                       # Simulator tick rate (ticks/s)
sim_freq                                 1000000000000                       # Frequency of simulated ticks
sim_insts                                     1000027                       # Number of instructions simulated
sim_ops                                       1022150                       # Number of ops (including micro ops) simulated
sim_seconds                                  0.000772                       # Number of seconds simulated
sim_ticks                                   772011200                       # Number of ticks simulated
system.cpu.Branches                                10                       # Number of branches fetched
system.cpu.committedInsts                          25                       # Number of instructions committed
system.cpu.committedOps                            25                       # Number of ops (including micro ops) committed
system.cpu.idle_fraction                            0                       # Percentage of idle cycles
system.cpu.not_idle_fraction                        1                       # Percentage of non-idle cycles
system.cpu.numCycles                               25                       # number of cpu cycles simulated
system.cpu.numWorkItemsCompleted                    0                       # number of work items this cpu completed
system.cpu.numWorkItemsStarted                      0                       # number of work items this cpu started
system.cpu.num_busy_cycles                         25                       # Number of busy cycles
system.cpu.num_cc_register_reads                   18                       # number of times the CC registers were read
system.cpu.num_cc_register_writes                  12                       # number of times the CC registers were written
system.cpu.num_conditional_control_insts            6                       # number of instructions that are conditional controls
system.cpu.num_fp_alu_accesses                      0                       # Number of float alu accesses
system.cpu.num_fp_insts                             0                       # number of float instructions
system.cpu.num_fp_register_reads                    0                       # number of times the floating registers were read
system.cpu.num_fp_register_writes                   0                       # number of times the floating registers were written
system.cpu.num_func_calls                           2                       # number of times a function call or return occured
system.cpu.num_idle_cycles                          0                       # Number of idle cycles
system.cpu.num_int_alu_accesses                    17                       # Number of integer alu accesses
system.cpu.num_int_insts                           17                       # number of integer instructions
system.cpu.num_int_register_reads                  25                       # number of times the integer registers were read
system.cpu.num_int_register_writes                 16                       # number of times the integer registers were written
system.cpu.num_load_insts                           4                       # Number of load instructions
system.cpu.num_mem_refs                             4                       # number of memory refs
system.cpu.num_store_insts                          0                       # Number of store instructions
system.cpu.num_vec_alu_accesses                     0                       # Number of vector alu accesses
system.cpu.num_vec_insts                            0                       # number of vector instructions
system.cpu.num_vec_register_reads                   0                       # number of times the vector registers were read
system.cpu.num_vec_register_writes                  0                       # number of times the vector registers were written
system.cpu.op_class::No_OpClass                     0      0.00%      0.00% # Class of executed instruction
system.cpu.op_class::IntAlu                        21     84.00%     84.00% # Class of executed instruction
system.cpu.op_class::IntMult                        0      0.00%     84.00% # Class of executed instruction
system.cpu.op_class::IntDiv                         0      0.00%     84.00% # Class of executed instruction
system.cpu.op_class::FloatAdd                       0      0.00%     84.00% # Class of executed instruction
system.cpu.op_class::FloatCmp                       0      0.00%     84.00% # Class of executed instruction
system.cpu.op_class::FloatCvt                       0      0.00%     84.00% # Class of executed instruction
system.cpu.op_class::FloatMult                      0      0.00%     84.00% # Class of executed instruction
system.cpu.op_class::FloatMultAcc                   0      0.00%     84.00% # Class of executed instruction
system.cpu.op_class::FloatDiv                       0      0.00%     84.00% # Class of executed instruction
system.cpu.op_class::FloatMisc                      0      0.00%     84.00% # Class of executed instruction
system.cpu.op_class::FloatSqrt                      0      0.00%     84.00% # Class of executed instruction
system.cpu.op_class::SimdAdd                        0      0.00%     84.00% # Class of executed instruction
system.cpu.op_class::SimdAddAcc                     0      0.00%     84.00% # Class of executed instruction
system.cpu.op_class::SimdAlu                        0      0.00%     84.00% # Class of executed instruction
system.cpu.op_class::SimdCmp                        0      0.00%     84.00% # Class of executed instruction
system.cpu.op_class::SimdCvt                        0      0.00%     84.00% # Class of executed instruction
system.cpu.op_class::SimdMisc                       0      0.00%     84.00% # Class of executed instruction
system.cpu.op_class::SimdMult                       0      0.00%     84.00% # Class of executed instruction
system.cpu.op_class::SimdMultAcc                    0      0.00%     84.00% # Class of executed instruction
system.cpu.op_class::SimdShift                      0      0.00%     84.00% # Class of executed instruction
system.cpu.op_class::SimdShiftAcc                   0      0.00%     84.00% # Class of executed instruction
system.cpu.op_class::SimdDiv                        0      0.00%     84.00% # Class of executed instruction
system.cpu.op_class::SimdSqrt                       0      0.00%     84.00% # Class of executed instruction
system.cpu.op_class::SimdFloatAdd                   0      0.00%     84.00% # Class of executed instruction
system.cpu.op_class::SimdFloatAlu                   0      0.00%     84.00% # Class of executed instruction
system.cpu.op_class::SimdFloatCmp                   0      0.00%     84.00% # Class of executed instruction
system.cpu.op_class::SimdFloatCvt                   0      0.00%     84.00% # Class of executed instruction
system.cpu.op_class::SimdFloatDiv                   0      0.00%     84.00% # Class of executed instruction
system.cpu.op_class::SimdFloatMisc                  0      0.00%     84.00% # Class of executed instruction
system.cpu.op_class::SimdFloatMult                  0      0.00%     84.00% # Class of executed instruction
system.cpu.op_class::SimdFloatMultAcc               0      0.00%     84.00% # Class of executed instruction
system.cpu.op_class::SimdFloatSqrt                  0      0.00%     84.00% # Class of executed instruction
system.cpu.op_class::SimdReduceAdd                  0      0.00%     84.00% # Class of executed instruction
system.cpu.op_class::SimdReduceAlu                  0      0.00%     84.00% # Class of executed instruction
system.cpu.op_class::SimdReduceCmp                  0      0.00%     84.00% # Class of executed instruction
system.cpu.op_class::SimdFloatReduceAdd             0      0.00%     84.00% # Class of executed instruction
system.cpu.op_class::SimdFloatReduceCmp             0      0.00%     84.00% # Class of executed instruction
system.cpu.op_class::SimdAes                        0      0.00%     84.00% # Class of executed instruction
system.cpu.op_class::SimdAesMix                     0      0.00%     84.00% # Class of executed instruction
system.cpu.op_class::SimdSha1Hash                   0      0.00%     84.00% # Class of executed instruction
system.cpu.op_class::SimdSha1Hash2                  0      0.00%     84.00% # Class of executed instruction
system.cpu.op_class::SimdSha256Hash                 0      0.00%     84.00% # Class of executed instruction
system.cpu.op_class::SimdSha256Hash2                0      0.00%     84.00% # Class of executed instruction
system.cpu.op_class::SimdShaSigma2                  0      0.00%     84.00% # Class of executed instruction
system.cpu.op_class::SimdShaSigma3                  0      0.00%     84.00% # Class of executed instruction
system.cpu.op_class::SimdPredAlu                    0      0.00%     84.00% # Class of executed instruction
system.cpu.op_class::MemRead                        4     16.00%    100.00% # Class of executed instruction
system.cpu.op_class::MemWrite                       0      0.00%    100.00% # Class of executed instruction
system.cpu.op_class::FloatMemRead                   0      0.00%    100.00% # Class of executed instruction
system.cpu.op_class::FloatMemWrite                  0      0.00%    100.00% # Class of executed instruction
system.cpu.op_class::IprAccess                      0      0.00%    100.00% # Class of executed instruction
system.cpu.op_class::InstPrefetch                   0      0.00%    100.00% # Class of executed instruction
system.cpu.op_class::total                         25                       # Class of executed instruction
system.cpu.workload.numSyscalls                     0                       # Number of system calls
system.membus.snoop_filter.hit_multi_requests            0                       # Number of requests hitting in the snoop filter with multiple (>1) holders of the requested data.
system.membus.snoop_filter.hit_multi_snoops            0                       # Number of snoops hitting in the snoop filter with multiple (>1) holders of the requested data.
system.membus.snoop_filter.hit_single_requests         8374                       # Number of requests hitting in the snoop filter with a single holder of the requested data.
system.membus.snoop_filter.hit_single_snoops            0                       # Number of snoops hitting in the snoop filter with a single holder of the requested data.
system.membus.snoop_filter.tot_requests         24985                       # Total number of requests made to the snoop filter.
system.membus.snoop_filter.tot_snoops               0                       # Total number of snoops made to the snoop filter.
system.switch_cpus.cc_regfile_reads            988974                       # number of cc regfile reads
system.switch_cpus.cc_regfile_writes           816075                       # number of cc regfile writes
system.switch_cpus.committedInsts             1000002                       # Number of Instructions Simulated
system.switch_cpus.committedOps               1022125                       # Number of Ops (including micro ops) Simulated
system.switch_cpus.cpi                       1.929999                       # CPI: Cycles Per Instruction
system.switch_cpus.cpi_total                 1.929999                       # CPI: Total CPI of All Threads
system.switch_cpus.idleCycles                    3786                       # Total number of cycles that the CPU has spent unscheduled due to idling
system.switch_cpus.iew.branchMispredicts        35631                       # Number of branch mispredicts detected at execute
system.switch_cpus.iew.exec_branches           501117                       # Number of branches executed
system.switch_cpus.iew.exec_nop                  3676                       # number of nop insts executed
system.switch_cpus.iew.exec_rate             1.009289                       # Inst execution rate
system.switch_cpus.iew.exec_refs               688267                       # number of memory reference insts executed
system.switch_cpus.iew.exec_stores             131542                       # Number of stores executed
system.switch_cpus.iew.exec_swp                     0                       # number of swp insts executed
system.switch_cpus.iew.iewBlockCycles          559055                       # Number of cycles IEW is blocking
system.switch_cpus.iew.iewDispLoadInsts        774977                       # Number of dispatched load instructions
system.switch_cpus.iew.iewDispNonSpecInsts            0                       # Number of dispatched non-speculative instructions
system.switch_cpus.iew.iewDispSquashedInsts            0                       # Number of squashed instructions skipped by dispatch
system.switch_cpus.iew.iewDispStoreInsts       195182                       # Number of dispatched store instructions
system.switch_cpus.iew.iewDispatchedInsts      2885231                       # Number of instructions dispatched to IQ
system.switch_cpus.iew.iewExecLoadInsts        556725                       # Number of load instructions executed
system.switch_cpus.iew.iewExecSquashedInsts        52856                       # Number of squashed instructions skipped in execute
system.switch_cpus.iew.iewExecutedInsts       1947930                       # Number of executed instructions
system.switch_cpus.iew.iewIQFullEvents            308                       # Number of times the IQ has become full, causing a stall
system.switch_cpus.iew.iewIdleCycles                0                       # Number of cycles IEW is idle
system.switch_cpus.iew.iewLSQFullEvents             0                       # Number of times the LSQ has become full, causing a stall
system.switch_cpus.iew.iewSquashCycles          33086                       # Number of cycles IEW is squashing
system.switch_cpus.iew.iewUnblockCycles           541                       # Number of cycles IEW is unblocking
system.switch_cpus.iew.memOrderViolationEvents           68                       # Number of memory order violations
system.switch_cpus.iew.predictedNotTakenIncorrect        20985                       # Number of branches that were predicted not taken incorrectly
system.switch_cpus.iew.predictedTakenIncorrect        14646                       # Number of branches that were predicted taken incorrectly
system.switch_cpus.iew.wb_consumers           2206474                       # num instructions consuming a value
system.switch_cpus.iew.wb_count               1814721                       # cumulative count of insts written-back
system.switch_cpus.iew.wb_fanout             0.517643                       # average fanout of values written-back
system.switch_cpus.iew.wb_producers           1142166                       # num instructions producing a value
system.switch_cpus.iew.wb_rate               0.940268                       # insts written-back per cycle
system.switch_cpus.iew.wb_sent                1826711                       # cumulative count of insts sent to commit
system.switch_cpus.int_regfile_reads          2140073                       # number of integer regfile reads
system.switch_cpus.int_regfile_writes         1271856                       # number of integer regfile writes
system.switch_cpus.ipc                       0.518135                       # IPC: Instructions Per Cycle
system.switch_cpus.ipc_total                 0.518135                       # IPC: Total IPC of All Threads
system.switch_cpus.iq.FU_type_0::No_OpClass            6      0.00%      0.00% # Type of FU issued
system.switch_cpus.iq.FU_type_0::IntAlu       1259620     62.96%     62.96% # Type of FU issued
system.switch_cpus.iq.FU_type_0::IntMult         3817      0.19%     63.15% # Type of FU issued
system.switch_cpus.iq.FU_type_0::IntDiv          1520      0.08%     63.22% # Type of FU issued
system.switch_cpus.iq.FU_type_0::FloatAdd            0      0.00%     63.22% # Type of FU issued
system.switch_cpus.iq.FU_type_0::FloatCmp            0      0.00%     63.22% # Type of FU issued
system.switch_cpus.iq.FU_type_0::FloatCvt            0      0.00%     63.22% # Type of FU issued
system.switch_cpus.iq.FU_type_0::FloatMult            0      0.00%     63.22% # Type of FU issued
system.switch_cpus.iq.FU_type_0::FloatMultAcc            0      0.00%     63.22% # Type of FU issued
system.switch_cpus.iq.FU_type_0::FloatDiv            0      0.00%     63.22% # Type of FU issued
system.switch_cpus.iq.FU_type_0::FloatMisc            0      0.00%     63.22% # Type of FU issued
system.switch_cpus.iq.FU_type_0::FloatSqrt            0      0.00%     63.22% # Type of FU issued
system.switch_cpus.iq.FU_type_0::SimdAdd           16      0.00%     63.22% # Type of FU issued
system.switch_cpus.iq.FU_type_0::SimdAddAcc            0      0.00%     63.22% # Type of FU issued
system.switch_cpus.iq.FU_type_0::SimdAlu            0      0.00%     63.22% # Type of FU issued
system.switch_cpus.iq.FU_type_0::SimdCmp            0      0.00%     63.22% # Type of FU issued
system.switch_cpus.iq.FU_type_0::SimdCvt            0      0.00%     63.22% # Type of FU issued
system.switch_cpus.iq.FU_type_0::SimdMisc            0      0.00%     63.22% # Type of FU issued
system.switch_cpus.iq.FU_type_0::SimdMult            0      0.00%     63.22% # Type of FU issued
system.switch_cpus.iq.FU_type_0::SimdMultAcc            0      0.00%     63.22% # Type of FU issued
system.switch_cpus.iq.FU_type_0::SimdShift            0      0.00%     63.22% # Type of FU issued
system.switch_cpus.iq.FU_type_0::SimdShiftAcc            0      0.00%     63.22% # Type of FU issued
system.switch_cpus.iq.FU_type_0::SimdDiv            0      0.00%     63.22% # Type of FU issued
system.switch_cpus.iq.FU_type_0::SimdSqrt            0      0.00%     63.22% # Type of FU issued
system.switch_cpus.iq.FU_type_0::SimdFloatAdd            0      0.00%     63.22% # Type of FU issued
system.switch_cpus.iq.FU_type_0::SimdFloatAlu            0      0.00%     63.22% # Type of FU issued
system.switch_cpus.iq.FU_type_0::SimdFloatCmp            0      0.00%     63.22% # Type of FU issued
system.switch_cpus.iq.FU_type_0::SimdFloatCvt            0      0.00%     63.22% # Type of FU issued
system.switch_cpus.iq.FU_type_0::SimdFloatDiv            0      0.00%     63.22% # Type of FU issued
system.switch_cpus.iq.FU_type_0::SimdFloatMisc            0      0.00%     63.22% # Type of FU issued
system.switch_cpus.iq.FU_type_0::SimdFloatMult            0      0.00%     63.22% # Type of FU issued
system.switch_cpus.iq.FU_type_0::SimdFloatMultAcc           18      0.00%     63.22% # Type of FU issued
system.switch_cpus.iq.FU_type_0::SimdFloatSqrt            0      0.00%     63.22% # Type of FU issued
system.switch_cpus.iq.FU_type_0::SimdReduceAdd            0      0.00%     63.22% # Type of FU issued
system.switch_cpus.iq.FU_type_0::SimdReduceAlu            0      0.00%     63.22% # Type of FU issued
system.switch_cpus.iq.FU_type_0::SimdReduceCmp            0      0.00%     63.22% # Type of FU issued
system.switch_cpus.iq.FU_type_0::SimdFloatReduceAdd            0      0.00%     63.22% # Type of FU issued
system.switch_cpus.iq.FU_type_0::SimdFloatReduceCmp            0      0.00%     63.22% # Type of FU issued
system.switch_cpus.iq.FU_type_0::SimdAes            0      0.00%     63.22% # Type of FU issued
system.switch_cpus.iq.FU_type_0::SimdAesMix            0      0.00%     63.22% # Type of FU issued
system.switch_cpus.iq.FU_type_0::SimdSha1Hash            0      0.00%     63.22% # Type of FU issued
system.switch_cpus.iq.FU_type_0::SimdSha1Hash2            0      0.00%     63.22% # Type of FU issued
system.switch_cpus.iq.FU_type_0::SimdSha256Hash            0      0.00%     63.22% # Type of FU issued
system.switch_cpus.iq.FU_type_0::SimdSha256Hash2            0      0.00%     63.22% # Type of FU issued
system.switch_cpus.iq.FU_type_0::SimdShaSigma2            0      0.00%     63.22% # Type of FU issued
system.switch_cpus.iq.FU_type_0::SimdShaSigma3            0      0.00%     63.22% # Type of FU issued
system.switch_cpus.iq.FU_type_0::SimdPredAlu            0      0.00%     63.22% # Type of FU issued
system.switch_cpus.iq.FU_type_0::MemRead       595075     29.74%     92.97% # Type of FU issued
system.switch_cpus.iq.FU_type_0::MemWrite       140719      7.03%    100.00% # Type of FU issued
system.switch_cpus.iq.FU_type_0::FloatMemRead            0      0.00%    100.00% # Type of FU issued
system.switch_cpus.iq.FU_type_0::FloatMemWrite            0      0.00%    100.00% # Type of FU issued
system.switch_cpus.iq.FU_type_0::IprAccess            0      0.00%    100.00% # Type of FU issued
system.switch_cpus.iq.FU_type_0::InstPrefetch            0      0.00%    100.00% # Type of FU issued
system.switch_cpus.iq.FU_type_0::total        2000791                       # Type of FU issued
system.switch_cpus.iq.fp_alu_accesses               0                       # Number of floating point alu accesses
system.switch_cpus.iq.fp_inst_queue_reads            0                       # Number of floating instruction queue reads
system.switch_cpus.iq.fp_inst_queue_wakeup_accesses            0                       # Number of floating instruction queue wakeup accesses
system.switch_cpus.iq.fp_inst_queue_writes            0                       # Number of floating instruction queue writes
system.switch_cpus.iq.fu_busy_cnt              846791                       # FU busy when requested
system.switch_cpus.iq.fu_busy_rate           0.423228                       # FU busy rate (busy events/executed inst)
system.switch_cpus.iq.fu_full::No_OpClass            0      0.00%      0.00% # attempts to use FU when none available
system.switch_cpus.iq.fu_full::IntAlu          454617     53.69%     53.69% # attempts to use FU when none available
system.switch_cpus.iq.fu_full::IntMult            347      0.04%     53.73% # attempts to use FU when none available
system.switch_cpus.iq.fu_full::IntDiv               5      0.00%     53.73% # attempts to use FU when none available
system.switch_cpus.iq.fu_full::FloatAdd             0      0.00%     53.73% # attempts to use FU when none available
system.switch_cpus.iq.fu_full::FloatCmp             0      0.00%     53.73% # attempts to use FU when none available
system.switch_cpus.iq.fu_full::FloatCvt             0      0.00%     53.73% # attempts to use FU when none available
system.switch_cpus.iq.fu_full::FloatMult            0      0.00%     53.73% # attempts to use FU when none available
system.switch_cpus.iq.fu_full::FloatMultAcc            0      0.00%     53.73% # attempts to use FU when none available
system.switch_cpus.iq.fu_full::FloatDiv             0      0.00%     53.73% # attempts to use FU when none available
system.switch_cpus.iq.fu_full::FloatMisc            0      0.00%     53.73% # attempts to use FU when none available
system.switch_cpus.iq.fu_full::FloatSqrt            0      0.00%     53.73% # attempts to use FU when none available
system.switch_cpus.iq.fu_full::SimdAdd              9      0.00%     53.73% # attempts to use FU when none available
system.switch_cpus.iq.fu_full::SimdAddAcc            0      0.00%     53.73% # attempts to use FU when none available
system.switch_cpus.iq.fu_full::SimdAlu              0      0.00%     53.73% # attempts to use FU when none available
system.switch_cpus.iq.fu_full::SimdCmp              0      0.00%     53.73% # attempts to use FU when none available
system.switch_cpus.iq.fu_full::SimdCvt              0      0.00%     53.73% # attempts to use FU when none available
system.switch_cpus.iq.fu_full::SimdMisc             0      0.00%     53.73% # attempts to use FU when none available
system.switch_cpus.iq.fu_full::SimdMult             0      0.00%     53.73% # attempts to use FU when none available
system.switch_cpus.iq.fu_full::SimdMultAcc            0      0.00%     53.73% # attempts to use FU when none available
system.switch_cpus.iq.fu_full::SimdShift            0      0.00%     53.73% # attempts to use FU when none available
system.switch_cpus.iq.fu_full::SimdShiftAcc            0      0.00%     53.73% # attempts to use FU when none available
system.switch_cpus.iq.fu_full::SimdDiv              0      0.00%     53.73% # attempts to use FU when none available
system.switch_cpus.iq.fu_full::SimdSqrt             0      0.00%     53.73% # attempts to use FU when none available
system.switch_cpus.iq.fu_full::SimdFloatAdd            0      0.00%     53.73% # attempts to use FU when none available
system.switch_cpus.iq.fu_full::SimdFloatAlu            0      0.00%     53.73% # attempts to use FU when none available
system.switch_cpus.iq.fu_full::SimdFloatCmp            0      0.00%     53.73% # attempts to use FU when none available
system.switch_cpus.iq.fu_full::SimdFloatCvt            0      0.00%     53.73% # attempts to use FU when none available
system.switch_cpus.iq.fu_full::SimdFloatDiv            0      0.00%     53.73% # attempts to use FU when none available
system.switch_cpus.iq.fu_full::SimdFloatMisc            0      0.00%     53.73% # attempts to use FU when none available
system.switch_cpus.iq.fu_full::SimdFloatMult            0      0.00%     53.73% # attempts to use FU when none available
system.switch_cpus.iq.fu_full::SimdFloatMultAcc            4      0.00%     53.73% # attempts to use FU when none available
system.switch_cpus.iq.fu_full::SimdFloatSqrt            0      0.00%     53.73% # attempts to use FU when none available
system.switch_cpus.iq.fu_full::SimdReduceAdd            0      0.00%     53.73% # attempts to use FU when none available
system.switch_cpus.iq.fu_full::SimdReduceAlu            0      0.00%     53.73% # attempts to use FU when none available
system.switch_cpus.iq.fu_full::SimdReduceCmp            0      0.00%     53.73% # attempts to use FU when none available
system.switch_cpus.iq.fu_full::SimdFloatReduceAdd            0      0.00%     53.73% # attempts to use FU when none available
system.switch_cpus.iq.fu_full::SimdFloatReduceCmp            0      0.00%     53.73% # attempts to use FU when none available
system.switch_cpus.iq.fu_full::SimdAes              0      0.00%     53.73% # attempts to use FU when none available
system.switch_cpus.iq.fu_full::SimdAesMix            0      0.00%     53.73% # attempts to use FU when none available
system.switch_cpus.iq.fu_full::SimdSha1Hash            0      0.00%     53.73% # attempts to use FU when none available
system.switch_cpus.iq.fu_full::SimdSha1Hash2            0      0.00%     53.73% # attempts to use FU when none available
system.switch_cpus.iq.fu_full::SimdSha256Hash            0      0.00%     53.73% # attempts to use FU when none available
system.switch_cpus.iq.fu_full::SimdSha256Hash2            0      0.00%     53.73% # attempts to use FU when none available
system.switch_cpus.iq.fu_full::SimdShaSigma2            0      0.00%     53.73% # attempts to use FU when none available
system.switch_cpus.iq.fu_full::SimdShaSigma3            0      0.00%     53.73% # attempts to use FU when none available
system.switch_cpus.iq.fu_full::SimdPredAlu            0      0.00%     53.73% # attempts to use FU when none available
system.switch_cpus.iq.fu_full::MemRead         367569     43.41%     97.14% # attempts to use FU when none available
system.switch_cpus.iq.fu_full::MemWrite         24240      2.86%    100.00% # attempts to use FU when none available
system.switch_cpus.iq.fu_full::FloatMemRead            0      0.00%    100.00% # attempts to use FU when none available
system.switch_cpus.iq.fu_full::FloatMemWrite            0      0.00%    100.00% # attempts to use FU when none available
system.switch_cpus.iq.fu_full::IprAccess            0      0.00%    100.00% # attempts to use FU when none available
system.switch_cpus.iq.fu_full::InstPrefetch            0      0.00%    100.00% # attempts to use FU when none available
system.switch_cpus.iq.int_alu_accesses        2847529                       # Number of integer alu accesses
system.switch_cpus.iq.int_inst_queue_reads      6954963                       # Number of integer instruction queue reads
system.switch_cpus.iq.int_inst_queue_wakeup_accesses      1814696                       # Number of integer instruction queue wakeup accesses
system.switch_cpus.iq.int_inst_queue_writes      4740931                       # Number of integer instruction queue writes
system.switch_cpus.iq.iqInstsAdded            2881555                       # Number of instructions added to the IQ (excludes non-spec)
system.switch_cpus.iq.iqInstsIssued           2000791                       # Number of instructions issued
system.switch_cpus.iq.iqSquashedInstsExamined      1859388                       # Number of squashed instructions iterated over during squash; mainly for profiling
system.switch_cpus.iq.iqSquashedInstsIssued       180459                       # Number of squashed instructions issued
system.switch_cpus.iq.iqSquashedOperandsExamined      1873037                       # Number of squashed operands that are examined and possibly removed from graph
system.switch_cpus.iq.issued_per_cycle::samples      1926217                       # Number of insts issued each cycle
system.switch_cpus.iq.issued_per_cycle::mean     1.038715                       # Number of insts issued each cycle
system.switch_cpus.iq.issued_per_cycle::stdev     1.312959                       # Number of insts issued each cycle
system.switch_cpus.iq.issued_per_cycle::underflows            0      0.00%      0.00% # Number of insts issued each cycle
system.switch_cpus.iq.issued_per_cycle::0      1074669     55.79%     55.79% # Number of insts issued each cycle
system.switch_cpus.iq.issued_per_cycle::1       187522      9.74%     65.53% # Number of insts issued each cycle
system.switch_cpus.iq.issued_per_cycle::2       243164     12.62%     78.15% # Number of insts issued each cycle
system.switch_cpus.iq.issued_per_cycle::3       356686     18.52%     96.67% # Number of insts issued each cycle
system.switch_cpus.iq.issued_per_cycle::4        63999      3.32%     99.99% # Number of insts issued each cycle
system.switch_cpus.iq.issued_per_cycle::5          175      0.01%    100.00% # Number of insts issued each cycle
system.switch_cpus.iq.issued_per_cycle::6            2      0.00%    100.00% # Number of insts issued each cycle
system.switch_cpus.iq.issued_per_cycle::7            0      0.00%    100.00% # Number of insts issued each cycle
system.switch_cpus.iq.issued_per_cycle::8            0      0.00%    100.00% # Number of insts issued each cycle
system.switch_cpus.iq.issued_per_cycle::overflows            0      0.00%    100.00% # Number of insts issued each cycle
system.switch_cpus.iq.issued_per_cycle::min_value            0                       # Number of insts issued each cycle
system.switch_cpus.iq.issued_per_cycle::max_value            6                       # Number of insts issued each cycle
system.switch_cpus.iq.issued_per_cycle::total      1926217                       # Number of insts issued each cycle
system.switch_cpus.iq.rate                   1.036678                       # Inst issue rate
system.switch_cpus.iq.vec_alu_accesses             47                       # Number of vector alu accesses
system.switch_cpus.iq.vec_inst_queue_reads           81                       # Number of vector instruction queue reads
system.switch_cpus.iq.vec_inst_queue_wakeup_accesses           25                       # Number of vector instruction queue wakeup accesses
system.switch_cpus.iq.vec_inst_queue_writes           80                       # Number of vector instruction queue writes
system.switch_cpus.memDep0.conflictingLoads        58131                       # Number of conflicting loads.
system.switch_cpus.memDep0.conflictingStores        36508                       # Number of conflicting stores.
system.switch_cpus.memDep0.insertedLoads       774977                       # Number of loads inserted to the mem dependence unit.
system.switch_cpus.memDep0.insertedStores       195182                       # Number of stores inserted to the mem dependence unit.
system.switch_cpus.misc_regfile_reads         5332791                       # number of misc regfile reads
system.switch_cpus.misc_regfile_writes              1                       # number of misc regfile writes
system.switch_cpus.numCycles                  1930003                       # number of cpu cycles simulated
system.switch_cpus.numWorkItemsCompleted            0                       # number of work items this cpu completed
system.switch_cpus.numWorkItemsStarted              0                       # number of work items this cpu started
system.switch_cpus.pred_regfile_reads               6                       # number of predicate regfile reads
system.switch_cpus.timesIdled                      40                       # Number of times that the entire CPU went into an idle state and unscheduled itself
system.switch_cpus.vec_regfile_reads               65                       # number of vector regfile reads
system.switch_cpus.vec_regfile_writes              69                       # number of vector regfile writes
system.tol2bus.snoop_filter.hit_multi_requests            0                       # Number of requests hitting in the snoop filter with multiple (>1) holders of the requested data.
system.tol2bus.snoop_filter.hit_multi_snoops            0                       # Number of snoops hitting in the snoop filter with multiple (>1) holders of the requested data.
system.tol2bus.snoop_filter.hit_single_requests        40393                       # Number of requests hitting in the snoop filter with a single holder of the requested data.
system.tol2bus.snoop_filter.hit_single_snoops          136                       # Number of snoops hitting in the snoop filter with a single holder of the requested data.
system.tol2bus.snoop_filter.tot_requests        81086                       # Total number of requests made to the snoop filter.
system.tol2bus.snoop_filter.tot_snoops            136                       # Total number of snoops made to the snoop filter.
system.clk_domain.clock                          1000                       # Clock period in ticks
system.cpu.dcache.demand_hits::.switch_cpus.data       443794                       # number of demand (read+write) hits
system.cpu.dcache.demand_hits::total           443794                       # number of demand (read+write) hits
system.cpu.dcache.overall_hits::.switch_cpus.data       443794                       # number of overall hits
system.cpu.dcache.overall_hits::total          443794                       # number of overall hits
system.cpu.dcache.demand_misses::.cpu.data            4                       # number of demand (read+write) misses
system.cpu.dcache.demand_misses::.switch_cpus.data        77823                       # number of demand (read+write) misses
system.cpu.dcache.demand_misses::total          77827                       # number of demand (read+write) misses
system.cpu.dcache.overall_misses::.cpu.data            4                       # number of overall misses
system.cpu.dcache.overall_misses::.switch_cpus.data        77823                       # number of overall misses
system.cpu.dcache.overall_misses::total         77827                       # number of overall misses
system.cpu.dcache.demand_miss_latency::.switch_cpus.data   3120583609                       # number of demand (read+write) miss cycles
system.cpu.dcache.demand_miss_latency::total   3120583609                       # number of demand (read+write) miss cycles
system.cpu.dcache.overall_miss_latency::.switch_cpus.data   3120583609                       # number of overall miss cycles
system.cpu.dcache.overall_miss_latency::total   3120583609                       # number of overall miss cycles
system.cpu.dcache.demand_accesses::.cpu.data            4                       # number of demand (read+write) accesses
system.cpu.dcache.demand_accesses::.switch_cpus.data       521617                       # number of demand (read+write) accesses
system.cpu.dcache.demand_accesses::total       521621                       # number of demand (read+write) accesses
system.cpu.dcache.overall_accesses::.cpu.data            4                       # number of overall (read+write) accesses
system.cpu.dcache.overall_accesses::.switch_cpus.data       521617                       # number of overall (read+write) accesses
system.cpu.dcache.overall_accesses::total       521621                       # number of overall (read+write) accesses
system.cpu.dcache.demand_miss_rate::.cpu.data            1                       # miss rate for demand accesses
system.cpu.dcache.demand_miss_rate::.switch_cpus.data     0.149196                       # miss rate for demand accesses
system.cpu.dcache.demand_miss_rate::total     0.149202                       # miss rate for demand accesses
system.cpu.dcache.overall_miss_rate::.cpu.data            1                       # miss rate for overall accesses
system.cpu.dcache.overall_miss_rate::.switch_cpus.data     0.149196                       # miss rate for overall accesses
system.cpu.dcache.overall_miss_rate::total     0.149202                       # miss rate for overall accesses
system.cpu.dcache.demand_avg_miss_latency::.switch_cpus.data 40098.474860                       # average overall miss latency
system.cpu.dcache.demand_avg_miss_latency::total 40096.413957                       # average overall miss latency
system.cpu.dcache.overall_avg_miss_latency::.switch_cpus.data 40098.474860                       # average overall miss latency
system.cpu.dcache.overall_avg_miss_latency::total 40096.413957                       # average overall miss latency
system.cpu.dcache.blocked_cycles::no_mshrs       248909                       # number of cycles access was blocked
system.cpu.dcache.blocked_cycles::no_targets        73907                       # number of cycles access was blocked
system.cpu.dcache.blocked::no_mshrs             11933                       # number of cycles access was blocked
system.cpu.dcache.blocked::no_targets             920                       # number of cycles access was blocked
system.cpu.dcache.avg_blocked_cycles::no_mshrs    20.858879                       # average number of cycles each access was blocked
system.cpu.dcache.avg_blocked_cycles::no_targets    80.333696                       # average number of cycles each access was blocked
system.cpu.dcache.writebacks::.writebacks        40393                       # number of writebacks
system.cpu.dcache.writebacks::total             40393                       # number of writebacks
system.cpu.dcache.demand_mshr_hits::.switch_cpus.data        37178                       # number of demand (read+write) MSHR hits
system.cpu.dcache.demand_mshr_hits::total        37178                       # number of demand (read+write) MSHR hits
system.cpu.dcache.overall_mshr_hits::.switch_cpus.data        37178                       # number of overall MSHR hits
system.cpu.dcache.overall_mshr_hits::total        37178                       # number of overall MSHR hits
system.cpu.dcache.demand_mshr_misses::.switch_cpus.data        40645                       # number of demand (read+write) MSHR misses
system.cpu.dcache.demand_mshr_misses::total        40645                       # number of demand (read+write) MSHR misses
system.cpu.dcache.overall_mshr_misses::.switch_cpus.data        40645                       # number of overall MSHR misses
system.cpu.dcache.overall_mshr_misses::total        40645                       # number of overall MSHR misses
system.cpu.dcache.demand_mshr_miss_latency::.switch_cpus.data   1538690757                       # number of demand (read+write) MSHR miss cycles
system.cpu.dcache.demand_mshr_miss_latency::total   1538690757                       # number of demand (read+write) MSHR miss cycles
system.cpu.dcache.overall_mshr_miss_latency::.switch_cpus.data   1538690757                       # number of overall MSHR miss cycles
system.cpu.dcache.overall_mshr_miss_latency::total   1538690757                       # number of overall MSHR miss cycles
system.cpu.dcache.demand_mshr_miss_rate::.switch_cpus.data     0.077921                       # mshr miss rate for demand accesses
system.cpu.dcache.demand_mshr_miss_rate::total     0.077921                       # mshr miss rate for demand accesses
system.cpu.dcache.overall_mshr_miss_rate::.switch_cpus.data     0.077921                       # mshr miss rate for overall accesses
system.cpu.dcache.overall_mshr_miss_rate::total     0.077921                       # mshr miss rate for overall accesses
system.cpu.dcache.demand_avg_mshr_miss_latency::.switch_cpus.data 37856.827580                       # average overall mshr miss latency
system.cpu.dcache.demand_avg_mshr_miss_latency::total 37856.827580                       # average overall mshr miss latency
system.cpu.dcache.overall_avg_mshr_miss_latency::.switch_cpus.data 37856.827580                       # average overall mshr miss latency
system.cpu.dcache.overall_avg_mshr_miss_latency::total 37856.827580                       # average overall mshr miss latency
system.cpu.dcache.replacements                  40393                       # number of replacements
system.cpu.dcache.ReadReq_hits::.switch_cpus.data       381774                       # number of ReadReq hits
system.cpu.dcache.ReadReq_hits::total          381774                       # number of ReadReq hits
system.cpu.dcache.ReadReq_misses::.cpu.data            4                       # number of ReadReq misses
system.cpu.dcache.ReadReq_misses::.switch_cpus.data        66032                       # number of ReadReq misses
system.cpu.dcache.ReadReq_misses::total         66036                       # number of ReadReq misses
system.cpu.dcache.ReadReq_miss_latency::.switch_cpus.data   2958538800                       # number of ReadReq miss cycles
system.cpu.dcache.ReadReq_miss_latency::total   2958538800                       # number of ReadReq miss cycles
system.cpu.dcache.ReadReq_accesses::.cpu.data            4                       # number of ReadReq accesses(hits+misses)
system.cpu.dcache.ReadReq_accesses::.switch_cpus.data       447806                       # number of ReadReq accesses(hits+misses)
system.cpu.dcache.ReadReq_accesses::total       447810                       # number of ReadReq accesses(hits+misses)
system.cpu.dcache.ReadReq_miss_rate::.cpu.data            1                       # miss rate for ReadReq accesses
system.cpu.dcache.ReadReq_miss_rate::.switch_cpus.data     0.147457                       # miss rate for ReadReq accesses
system.cpu.dcache.ReadReq_miss_rate::total     0.147464                       # miss rate for ReadReq accesses
system.cpu.dcache.ReadReq_avg_miss_latency::.switch_cpus.data 44804.622001                       # average ReadReq miss latency
system.cpu.dcache.ReadReq_avg_miss_latency::total 44801.908050                       # average ReadReq miss latency
system.cpu.dcache.ReadReq_mshr_hits::.switch_cpus.data        29160                       # number of ReadReq MSHR hits
system.cpu.dcache.ReadReq_mshr_hits::total        29160                       # number of ReadReq MSHR hits
system.cpu.dcache.ReadReq_mshr_misses::.switch_cpus.data        36872                       # number of ReadReq MSHR misses
system.cpu.dcache.ReadReq_mshr_misses::total        36872                       # number of ReadReq MSHR misses
system.cpu.dcache.ReadReq_mshr_miss_latency::.switch_cpus.data   1489377600                       # number of ReadReq MSHR miss cycles
system.cpu.dcache.ReadReq_mshr_miss_latency::total   1489377600                       # number of ReadReq MSHR miss cycles
system.cpu.dcache.ReadReq_mshr_miss_rate::.switch_cpus.data     0.082339                       # mshr miss rate for ReadReq accesses
system.cpu.dcache.ReadReq_mshr_miss_rate::total     0.082338                       # mshr miss rate for ReadReq accesses
system.cpu.dcache.ReadReq_avg_mshr_miss_latency::.switch_cpus.data 40393.187242                       # average ReadReq mshr miss latency
system.cpu.dcache.ReadReq_avg_mshr_miss_latency::total 40393.187242                       # average ReadReq mshr miss latency
system.cpu.dcache.WriteReq_hits::.switch_cpus.data        62020                       # number of WriteReq hits
system.cpu.dcache.WriteReq_hits::total          62020                       # number of WriteReq hits
system.cpu.dcache.WriteReq_misses::.switch_cpus.data        11791                       # number of WriteReq misses
system.cpu.dcache.WriteReq_misses::total        11791                       # number of WriteReq misses
system.cpu.dcache.WriteReq_miss_latency::.switch_cpus.data    162044809                       # number of WriteReq miss cycles
system.cpu.dcache.WriteReq_miss_latency::total    162044809                       # number of WriteReq miss cycles
system.cpu.dcache.WriteReq_accesses::.switch_cpus.data        73811                       # number of WriteReq accesses(hits+misses)
system.cpu.dcache.WriteReq_accesses::total        73811                       # number of WriteReq accesses(hits+misses)
system.cpu.dcache.WriteReq_miss_rate::.switch_cpus.data     0.159746                       # miss rate for WriteReq accesses
system.cpu.dcache.WriteReq_miss_rate::total     0.159746                       # miss rate for WriteReq accesses
system.cpu.dcache.WriteReq_avg_miss_latency::.switch_cpus.data 13743.092952                       # average WriteReq miss latency
system.cpu.dcache.WriteReq_avg_miss_latency::total 13743.092952                       # average WriteReq miss latency
system.cpu.dcache.WriteReq_mshr_hits::.switch_cpus.data         8018                       # number of WriteReq MSHR hits
system.cpu.dcache.WriteReq_mshr_hits::total         8018                       # number of WriteReq MSHR hits
system.cpu.dcache.WriteReq_mshr_misses::.switch_cpus.data         3773                       # number of WriteReq MSHR misses
system.cpu.dcache.WriteReq_mshr_misses::total         3773                       # number of WriteReq MSHR misses
system.cpu.dcache.WriteReq_mshr_miss_latency::.switch_cpus.data     49313157                       # number of WriteReq MSHR miss cycles
system.cpu.dcache.WriteReq_mshr_miss_latency::total     49313157                       # number of WriteReq MSHR miss cycles
system.cpu.dcache.WriteReq_mshr_miss_rate::.switch_cpus.data     0.051117                       # mshr miss rate for WriteReq accesses
system.cpu.dcache.WriteReq_mshr_miss_rate::total     0.051117                       # mshr miss rate for WriteReq accesses
system.cpu.dcache.WriteReq_avg_mshr_miss_latency::.switch_cpus.data 13070.012457                       # average WriteReq mshr miss latency
system.cpu.dcache.WriteReq_avg_mshr_miss_latency::total 13070.012457                       # average WriteReq mshr miss latency
system.cpu.dcache.power_state.pwrStateResidencyTicks::UNDEFINED 3280454222000                       # Cumulative time (in ticks) in various power states
system.cpu.dcache.tags.tagsinuse           253.868700                       # Cycle average of tags in use
system.cpu.dcache.tags.total_refs              476125                       # Total number of references to valid blocks.
system.cpu.dcache.tags.sampled_refs             40393                       # Sample count of references to valid blocks.
system.cpu.dcache.tags.avg_refs             11.787315                       # Average number of references to valid blocks.
system.cpu.dcache.tags.warmup_cycle      3279682214400                       # Cycle when the warmup percentage was hit.
system.cpu.dcache.tags.occ_blocks::.cpu.data     0.076980                       # Average occupied blocks per requestor
system.cpu.dcache.tags.occ_blocks::.switch_cpus.data   253.791721                       # Average occupied blocks per requestor
system.cpu.dcache.tags.occ_percent::.cpu.data     0.000301                       # Average percentage of cache occupancy
system.cpu.dcache.tags.occ_percent::.switch_cpus.data     0.991374                       # Average percentage of cache occupancy
system.cpu.dcache.tags.occ_percent::total     0.991675                       # Average percentage of cache occupancy
system.cpu.dcache.tags.occ_task_id_blocks::1024          256                       # Occupied blocks per task id
system.cpu.dcache.tags.age_task_id_blocks_1024::0          199                       # Occupied blocks per task id
system.cpu.dcache.tags.age_task_id_blocks_1024::1           57                       # Occupied blocks per task id
system.cpu.dcache.tags.occ_task_id_percent::1024            1                       # Percentage of cache occupancy per task id
system.cpu.dcache.tags.tag_accesses           4213617                       # Number of tag accesses
system.cpu.dcache.tags.data_accesses          4213617                       # Number of data accesses
system.cpu.dcache.tags.power_state.pwrStateResidencyTicks::UNDEFINED 3280454222000                       # Cumulative time (in ticks) in various power states
system.cpu.dtb.instHits                             0                       # ITB inst hits
system.cpu.dtb.instMisses                           0                       # ITB inst misses
system.cpu.dtb.readHits                             0                       # DTB read hits
system.cpu.dtb.readMisses                           0                       # DTB read misses
system.cpu.dtb.writeHits                            0                       # DTB write hits
system.cpu.dtb.writeMisses                          0                       # DTB write misses
system.cpu.dtb.inserts                              0                       # Number of times an entry is inserted into the TLB
system.cpu.dtb.flushTlb                             2                       # Number of times complete TLB was flushed
system.cpu.dtb.flushTlbMva                          0                       # Number of times TLB was flushed by MVA
system.cpu.dtb.flushTlbMvaAsid                      0                       # Number of times TLB was flushed by MVA & ASID
system.cpu.dtb.flushTlbAsid                         0                       # Number of times TLB was flushed by ASID
system.cpu.dtb.flushedEntries                       0                       # Number of entries that have been flushed from TLB
system.cpu.dtb.alignFaults                          0                       # Number of TLB faults due to alignment restrictions
system.cpu.dtb.prefetchFaults                       0                       # Number of TLB faults due to prefetch
system.cpu.dtb.domainFaults                         0                       # Number of TLB faults due to domain restrictions
system.cpu.dtb.permsFaults                          0                       # Number of TLB faults due to permissions restrictions
system.cpu.dtb.readAccesses                         0                       # DTB read accesses
system.cpu.dtb.writeAccesses                        0                       # DTB write accesses
system.cpu.dtb.instAccesses                         0                       # ITB inst accesses
system.cpu.dtb.hits                                 0                       # Total TLB (inst and data) hits
system.cpu.dtb.misses                               0                       # Total TLB (inst and data) misses
system.cpu.dtb.accesses                             0                       # Total TLB (inst and data) accesses
system.cpu.dtb.stage2_mmu.stage2_tlb.instHits            0                       # ITB inst hits
system.cpu.dtb.stage2_mmu.stage2_tlb.instMisses            0                       # ITB inst misses
system.cpu.dtb.stage2_mmu.stage2_tlb.readHits            0                       # DTB read hits
system.cpu.dtb.stage2_mmu.stage2_tlb.readMisses            0                       # DTB read misses
system.cpu.dtb.stage2_mmu.stage2_tlb.writeHits            0                       # DTB write hits
system.cpu.dtb.stage2_mmu.stage2_tlb.writeMisses            0                       # DTB write misses
system.cpu.dtb.stage2_mmu.stage2_tlb.inserts            0                       # Number of times an entry is inserted into the TLB
system.cpu.dtb.stage2_mmu.stage2_tlb.flushTlb            0                       # Number of times complete TLB was flushed
system.cpu.dtb.stage2_mmu.stage2_tlb.flushTlbMva            0                       # Number of times TLB was flushed by MVA
system.cpu.dtb.stage2_mmu.stage2_tlb.flushTlbMvaAsid            0                       # Number of times TLB was flushed by MVA & ASID
system.cpu.dtb.stage2_mmu.stage2_tlb.flushTlbAsid            0                       # Number of times TLB was flushed by ASID
system.cpu.dtb.stage2_mmu.stage2_tlb.flushedEntries            0                       # Number of entries that have been flushed from TLB
system.cpu.dtb.stage2_mmu.stage2_tlb.alignFaults            0                       # Number of TLB faults due to alignment restrictions
system.cpu.dtb.stage2_mmu.stage2_tlb.prefetchFaults            0                       # Number of TLB faults due to prefetch
system.cpu.dtb.stage2_mmu.stage2_tlb.domainFaults            0                       # Number of TLB faults due to domain restrictions
system.cpu.dtb.stage2_mmu.stage2_tlb.permsFaults            0                       # Number of TLB faults due to permissions restrictions
system.cpu.dtb.stage2_mmu.stage2_tlb.readAccesses            0                       # DTB read accesses
system.cpu.dtb.stage2_mmu.stage2_tlb.writeAccesses            0                       # DTB write accesses
system.cpu.dtb.stage2_mmu.stage2_tlb.instAccesses            0                       # ITB inst accesses
system.cpu.dtb.stage2_mmu.stage2_tlb.hits            0                       # Total TLB (inst and data) hits
system.cpu.dtb.stage2_mmu.stage2_tlb.misses            0                       # Total TLB (inst and data) misses
system.cpu.dtb.stage2_mmu.stage2_tlb.accesses            0                       # Total TLB (inst and data) accesses
system.cpu.dtb.stage2_mmu.stage2_tlb.walker.walks            0                       # Table walker walks requested
system.cpu.dtb.stage2_mmu.stage2_tlb.walker.requestOrigin_Requested::Data            0                       # Table walker requests started/completed, data/inst
system.cpu.dtb.stage2_mmu.stage2_tlb.walker.requestOrigin_Requested::Inst            0                       # Table walker requests started/completed, data/inst
system.cpu.dtb.stage2_mmu.stage2_tlb.walker.requestOrigin_Requested::total            0                       # Table walker requests started/completed, data/inst
system.cpu.dtb.stage2_mmu.stage2_tlb.walker.requestOrigin_Completed::Data            0                       # Table walker requests started/completed, data/inst
system.cpu.dtb.stage2_mmu.stage2_tlb.walker.requestOrigin_Completed::Inst            0                       # Table walker requests started/completed, data/inst
system.cpu.dtb.stage2_mmu.stage2_tlb.walker.requestOrigin_Completed::total            0                       # Table walker requests started/completed, data/inst
system.cpu.dtb.stage2_mmu.stage2_tlb.walker.requestOrigin::total            0                       # Table walker requests started/completed, data/inst
system.cpu.dtb.stage2_mmu.stage2_tlb.walker.power_state.pwrStateResidencyTicks::UNDEFINED 3280454222000                       # Cumulative time (in ticks) in various power states
system.cpu.dtb.walker.walks                         0                       # Table walker walks requested
system.cpu.dtb.walker.requestOrigin_Requested::Data            0                       # Table walker requests started/completed, data/inst
system.cpu.dtb.walker.requestOrigin_Requested::Inst            0                       # Table walker requests started/completed, data/inst
system.cpu.dtb.walker.requestOrigin_Requested::total            0                       # Table walker requests started/completed, data/inst
system.cpu.dtb.walker.requestOrigin_Completed::Data            0                       # Table walker requests started/completed, data/inst
system.cpu.dtb.walker.requestOrigin_Completed::Inst            0                       # Table walker requests started/completed, data/inst
system.cpu.dtb.walker.requestOrigin_Completed::total            0                       # Table walker requests started/completed, data/inst
system.cpu.dtb.walker.requestOrigin::total            0                       # Table walker requests started/completed, data/inst
system.cpu.dtb.walker.power_state.pwrStateResidencyTicks::UNDEFINED 3280454222000                       # Cumulative time (in ticks) in various power states
system.cpu.dtb_walker_cache.blocked_cycles::no_mshrs            0                       # number of cycles access was blocked
system.cpu.dtb_walker_cache.blocked_cycles::no_targets            0                       # number of cycles access was blocked
system.cpu.dtb_walker_cache.blocked::no_mshrs            0                       # number of cycles access was blocked
system.cpu.dtb_walker_cache.blocked::no_targets            0                       # number of cycles access was blocked
system.cpu.dtb_walker_cache.avg_blocked_cycles::no_mshrs          nan                       # average number of cycles each access was blocked
system.cpu.dtb_walker_cache.avg_blocked_cycles::no_targets          nan                       # average number of cycles each access was blocked
system.cpu.dtb_walker_cache.replacements            0                       # number of replacements
system.cpu.dtb_walker_cache.power_state.pwrStateResidencyTicks::UNDEFINED 3280454222000                       # Cumulative time (in ticks) in various power states
system.cpu.dtb_walker_cache.tags.tagsinuse            0                       # Cycle average of tags in use
system.cpu.dtb_walker_cache.tags.total_refs            0                       # Total number of references to valid blocks.
system.cpu.dtb_walker_cache.tags.sampled_refs            0                       # Sample count of references to valid blocks.
system.cpu.dtb_walker_cache.tags.avg_refs          nan                       # Average number of references to valid blocks.
system.cpu.dtb_walker_cache.tags.warmup_cycle            0                       # Cycle when the warmup percentage was hit.
system.cpu.dtb_walker_cache.tags.tag_accesses            0                       # Number of tag accesses
system.cpu.dtb_walker_cache.tags.data_accesses            0                       # Number of data accesses
system.cpu.dtb_walker_cache.tags.power_state.pwrStateResidencyTicks::UNDEFINED 3280454222000                       # Cumulative time (in ticks) in various power states
system.cpu.icache.demand_hits::.cpu.inst           23                       # number of demand (read+write) hits
system.cpu.icache.demand_hits::.switch_cpus.inst       733763                       # number of demand (read+write) hits
system.cpu.icache.demand_hits::total           733786                       # number of demand (read+write) hits
system.cpu.icache.overall_hits::.cpu.inst           23                       # number of overall hits
system.cpu.icache.overall_hits::.switch_cpus.inst       733763                       # number of overall hits
system.cpu.icache.overall_hits::total          733786                       # number of overall hits
system.cpu.icache.demand_misses::.cpu.inst            2                       # number of demand (read+write) misses
system.cpu.icache.demand_misses::.switch_cpus.inst           59                       # number of demand (read+write) misses
system.cpu.icache.demand_misses::total             61                       # number of demand (read+write) misses
system.cpu.icache.overall_misses::.cpu.inst            2                       # number of overall misses
system.cpu.icache.overall_misses::.switch_cpus.inst           59                       # number of overall misses
system.cpu.icache.overall_misses::total            61                       # number of overall misses
system.cpu.icache.demand_miss_latency::.switch_cpus.inst      4918400                       # number of demand (read+write) miss cycles
system.cpu.icache.demand_miss_latency::total      4918400                       # number of demand (read+write) miss cycles
system.cpu.icache.overall_miss_latency::.switch_cpus.inst      4918400                       # number of overall miss cycles
system.cpu.icache.overall_miss_latency::total      4918400                       # number of overall miss cycles
system.cpu.icache.demand_accesses::.cpu.inst           25                       # number of demand (read+write) accesses
system.cpu.icache.demand_accesses::.switch_cpus.inst       733822                       # number of demand (read+write) accesses
system.cpu.icache.demand_accesses::total       733847                       # number of demand (read+write) accesses
system.cpu.icache.overall_accesses::.cpu.inst           25                       # number of overall (read+write) accesses
system.cpu.icache.overall_accesses::.switch_cpus.inst       733822                       # number of overall (read+write) accesses
system.cpu.icache.overall_accesses::total       733847                       # number of overall (read+write) accesses
system.cpu.icache.demand_miss_rate::.cpu.inst     0.080000                       # miss rate for demand accesses
system.cpu.icache.demand_miss_rate::.switch_cpus.inst     0.000080                       # miss rate for demand accesses
system.cpu.icache.demand_miss_rate::total     0.000083                       # miss rate for demand accesses
system.cpu.icache.overall_miss_rate::.cpu.inst     0.080000                       # miss rate for overall accesses
system.cpu.icache.overall_miss_rate::.switch_cpus.inst     0.000080                       # miss rate for overall accesses
system.cpu.icache.overall_miss_rate::total     0.000083                       # miss rate for overall accesses
system.cpu.icache.demand_avg_miss_latency::.switch_cpus.inst 83362.711864                       # average overall miss latency
system.cpu.icache.demand_avg_miss_latency::total 80629.508197                       # average overall miss latency
system.cpu.icache.overall_avg_miss_latency::.switch_cpus.inst 83362.711864                       # average overall miss latency
system.cpu.icache.overall_avg_miss_latency::total 80629.508197                       # average overall miss latency
system.cpu.icache.blocked_cycles::no_mshrs          802                       # number of cycles access was blocked
system.cpu.icache.blocked_cycles::no_targets            0                       # number of cycles access was blocked
system.cpu.icache.blocked::no_mshrs                 6                       # number of cycles access was blocked
system.cpu.icache.blocked::no_targets               0                       # number of cycles access was blocked
system.cpu.icache.avg_blocked_cycles::no_mshrs   133.666667                       # average number of cycles each access was blocked
system.cpu.icache.avg_blocked_cycles::no_targets          nan                       # average number of cycles each access was blocked
system.cpu.icache.demand_mshr_hits::.switch_cpus.inst           17                       # number of demand (read+write) MSHR hits
system.cpu.icache.demand_mshr_hits::total           17                       # number of demand (read+write) MSHR hits
system.cpu.icache.overall_mshr_hits::.switch_cpus.inst           17                       # number of overall MSHR hits
system.cpu.icache.overall_mshr_hits::total           17                       # number of overall MSHR hits
system.cpu.icache.demand_mshr_misses::.switch_cpus.inst           42                       # number of demand (read+write) MSHR misses
system.cpu.icache.demand_mshr_misses::total           42                       # number of demand (read+write) MSHR misses
system.cpu.icache.overall_mshr_misses::.switch_cpus.inst           42                       # number of overall MSHR misses
system.cpu.icache.overall_mshr_misses::total           42                       # number of overall MSHR misses
system.cpu.icache.demand_mshr_miss_latency::.switch_cpus.inst      3289600                       # number of demand (read+write) MSHR miss cycles
system.cpu.icache.demand_mshr_miss_latency::total      3289600                       # number of demand (read+write) MSHR miss cycles
system.cpu.icache.overall_mshr_miss_latency::.switch_cpus.inst      3289600                       # number of overall MSHR miss cycles
system.cpu.icache.overall_mshr_miss_latency::total      3289600                       # number of overall MSHR miss cycles
system.cpu.icache.demand_mshr_miss_rate::.switch_cpus.inst     0.000057                       # mshr miss rate for demand accesses
system.cpu.icache.demand_mshr_miss_rate::total     0.000057                       # mshr miss rate for demand accesses
system.cpu.icache.overall_mshr_miss_rate::.switch_cpus.inst     0.000057                       # mshr miss rate for overall accesses
system.cpu.icache.overall_mshr_miss_rate::total     0.000057                       # mshr miss rate for overall accesses
system.cpu.icache.demand_avg_mshr_miss_latency::.switch_cpus.inst 78323.809524                       # average overall mshr miss latency
system.cpu.icache.demand_avg_mshr_miss_latency::total 78323.809524                       # average overall mshr miss latency
system.cpu.icache.overall_avg_mshr_miss_latency::.switch_cpus.inst 78323.809524                       # average overall mshr miss latency
system.cpu.icache.overall_avg_mshr_miss_latency::total 78323.809524                       # average overall mshr miss latency
system.cpu.icache.replacements                      0                       # number of replacements
system.cpu.icache.ReadReq_hits::.cpu.inst           23                       # number of ReadReq hits
system.cpu.icache.ReadReq_hits::.switch_cpus.inst       733763                       # number of ReadReq hits
system.cpu.icache.ReadReq_hits::total          733786                       # number of ReadReq hits
system.cpu.icache.ReadReq_misses::.cpu.inst            2                       # number of ReadReq misses
system.cpu.icache.ReadReq_misses::.switch_cpus.inst           59                       # number of ReadReq misses
system.cpu.icache.ReadReq_misses::total            61                       # number of ReadReq misses
system.cpu.icache.ReadReq_miss_latency::.switch_cpus.inst      4918400                       # number of ReadReq miss cycles
system.cpu.icache.ReadReq_miss_latency::total      4918400                       # number of ReadReq miss cycles
system.cpu.icache.ReadReq_accesses::.cpu.inst           25                       # number of ReadReq accesses(hits+misses)
system.cpu.icache.ReadReq_accesses::.switch_cpus.inst       733822                       # number of ReadReq accesses(hits+misses)
system.cpu.icache.ReadReq_accesses::total       733847                       # number of ReadReq accesses(hits+misses)
system.cpu.icache.ReadReq_miss_rate::.cpu.inst     0.080000                       # miss rate for ReadReq accesses
system.cpu.icache.ReadReq_miss_rate::.switch_cpus.inst     0.000080                       # miss rate for ReadReq accesses
system.cpu.icache.ReadReq_miss_rate::total     0.000083                       # miss rate for ReadReq accesses
system.cpu.icache.ReadReq_avg_miss_latency::.switch_cpus.inst 83362.711864                       # average ReadReq miss latency
system.cpu.icache.ReadReq_avg_miss_latency::total 80629.508197                       # average ReadReq miss latency
system.cpu.icache.ReadReq_mshr_hits::.switch_cpus.inst           17                       # number of ReadReq MSHR hits
system.cpu.icache.ReadReq_mshr_hits::total           17                       # number of ReadReq MSHR hits
system.cpu.icache.ReadReq_mshr_misses::.switch_cpus.inst           42                       # number of ReadReq MSHR misses
system.cpu.icache.ReadReq_mshr_misses::total           42                       # number of ReadReq MSHR misses
system.cpu.icache.ReadReq_mshr_miss_latency::.switch_cpus.inst      3289600                       # number of ReadReq MSHR miss cycles
system.cpu.icache.ReadReq_mshr_miss_latency::total      3289600                       # number of ReadReq MSHR miss cycles
system.cpu.icache.ReadReq_mshr_miss_rate::.switch_cpus.inst     0.000057                       # mshr miss rate for ReadReq accesses
system.cpu.icache.ReadReq_mshr_miss_rate::total     0.000057                       # mshr miss rate for ReadReq accesses
system.cpu.icache.ReadReq_avg_mshr_miss_latency::.switch_cpus.inst 78323.809524                       # average ReadReq mshr miss latency
system.cpu.icache.ReadReq_avg_mshr_miss_latency::total 78323.809524                       # average ReadReq mshr miss latency
system.cpu.icache.power_state.pwrStateResidencyTicks::UNDEFINED 3280454222000                       # Cumulative time (in ticks) in various power states
system.cpu.icache.tags.tagsinuse            40.741401                       # Cycle average of tags in use
system.cpu.icache.tags.total_refs                   0                       # Total number of references to valid blocks.
system.cpu.icache.tags.sampled_refs                 0                       # Sample count of references to valid blocks.
system.cpu.icache.tags.avg_refs                   nan                       # Average number of references to valid blocks.
system.cpu.icache.tags.warmup_cycle      3279682211200                       # Cycle when the warmup percentage was hit.
system.cpu.icache.tags.occ_blocks::.cpu.inst     1.999995                       # Average occupied blocks per requestor
system.cpu.icache.tags.occ_blocks::.switch_cpus.inst    38.741406                       # Average occupied blocks per requestor
system.cpu.icache.tags.occ_percent::.cpu.inst     0.003906                       # Average percentage of cache occupancy
system.cpu.icache.tags.occ_percent::.switch_cpus.inst     0.075667                       # Average percentage of cache occupancy
system.cpu.icache.tags.occ_percent::total     0.079573                       # Average percentage of cache occupancy
system.cpu.icache.tags.occ_task_id_blocks::1024           44                       # Occupied blocks per task id
system.cpu.icache.tags.age_task_id_blocks_1024::2           44                       # Occupied blocks per task id
system.cpu.icache.tags.occ_task_id_percent::1024     0.085938                       # Percentage of cache occupancy per task id
system.cpu.icache.tags.tag_accesses           5870820                       # Number of tag accesses
system.cpu.icache.tags.data_accesses          5870820                       # Number of data accesses
system.cpu.icache.tags.power_state.pwrStateResidencyTicks::UNDEFINED 3280454222000                       # Cumulative time (in ticks) in various power states
system.cpu.itb.instHits                             0                       # ITB inst hits
system.cpu.itb.instMisses                           0                       # ITB inst misses
system.cpu.itb.readHits                             0                       # DTB read hits
system.cpu.itb.readMisses                           0                       # DTB read misses
system.cpu.itb.writeHits                            0                       # DTB write hits
system.cpu.itb.writeMisses                          0                       # DTB write misses
system.cpu.itb.inserts                              0                       # Number of times an entry is inserted into the TLB
system.cpu.itb.flushTlb                             2                       # Number of times complete TLB was flushed
system.cpu.itb.flushTlbMva                          0                       # Number of times TLB was flushed by MVA
system.cpu.itb.flushTlbMvaAsid                      0                       # Number of times TLB was flushed by MVA & ASID
system.cpu.itb.flushTlbAsid                         0                       # Number of times TLB was flushed by ASID
system.cpu.itb.flushedEntries                       0                       # Number of entries that have been flushed from TLB
system.cpu.itb.alignFaults                          0                       # Number of TLB faults due to alignment restrictions
system.cpu.itb.prefetchFaults                       0                       # Number of TLB faults due to prefetch
system.cpu.itb.domainFaults                         0                       # Number of TLB faults due to domain restrictions
system.cpu.itb.permsFaults                          0                       # Number of TLB faults due to permissions restrictions
system.cpu.itb.readAccesses                         0                       # DTB read accesses
system.cpu.itb.writeAccesses                        0                       # DTB write accesses
system.cpu.itb.instAccesses                         0                       # ITB inst accesses
system.cpu.itb.hits                                 0                       # Total TLB (inst and data) hits
system.cpu.itb.misses                               0                       # Total TLB (inst and data) misses
system.cpu.itb.accesses                             0                       # Total TLB (inst and data) accesses
system.cpu.itb.stage2_mmu.stage2_tlb.instHits            0                       # ITB inst hits
system.cpu.itb.stage2_mmu.stage2_tlb.instMisses            0                       # ITB inst misses
system.cpu.itb.stage2_mmu.stage2_tlb.readHits            0                       # DTB read hits
system.cpu.itb.stage2_mmu.stage2_tlb.readMisses            0                       # DTB read misses
system.cpu.itb.stage2_mmu.stage2_tlb.writeHits            0                       # DTB write hits
system.cpu.itb.stage2_mmu.stage2_tlb.writeMisses            0                       # DTB write misses
system.cpu.itb.stage2_mmu.stage2_tlb.inserts            0                       # Number of times an entry is inserted into the TLB
system.cpu.itb.stage2_mmu.stage2_tlb.flushTlb            0                       # Number of times complete TLB was flushed
system.cpu.itb.stage2_mmu.stage2_tlb.flushTlbMva            0                       # Number of times TLB was flushed by MVA
system.cpu.itb.stage2_mmu.stage2_tlb.flushTlbMvaAsid            0                       # Number of times TLB was flushed by MVA & ASID
system.cpu.itb.stage2_mmu.stage2_tlb.flushTlbAsid            0                       # Number of times TLB was flushed by ASID
system.cpu.itb.stage2_mmu.stage2_tlb.flushedEntries            0                       # Number of entries that have been flushed from TLB
system.cpu.itb.stage2_mmu.stage2_tlb.alignFaults            0                       # Number of TLB faults due to alignment restrictions
system.cpu.itb.stage2_mmu.stage2_tlb.prefetchFaults            0                       # Number of TLB faults due to prefetch
system.cpu.itb.stage2_mmu.stage2_tlb.domainFaults            0                       # Number of TLB faults due to domain restrictions
system.cpu.itb.stage2_mmu.stage2_tlb.permsFaults            0                       # Number of TLB faults due to permissions restrictions
system.cpu.itb.stage2_mmu.stage2_tlb.readAccesses            0                       # DTB read accesses
system.cpu.itb.stage2_mmu.stage2_tlb.writeAccesses            0                       # DTB write accesses
system.cpu.itb.stage2_mmu.stage2_tlb.instAccesses            0                       # ITB inst accesses
system.cpu.itb.stage2_mmu.stage2_tlb.hits            0                       # Total TLB (inst and data) hits
system.cpu.itb.stage2_mmu.stage2_tlb.misses            0                       # Total TLB (inst and data) misses
system.cpu.itb.stage2_mmu.stage2_tlb.accesses            0                       # Total TLB (inst and data) accesses
system.cpu.itb.stage2_mmu.stage2_tlb.walker.walks            0                       # Table walker walks requested
system.cpu.itb.stage2_mmu.stage2_tlb.walker.requestOrigin_Requested::Data            0                       # Table walker requests started/completed, data/inst
system.cpu.itb.stage2_mmu.stage2_tlb.walker.requestOrigin_Requested::Inst            0                       # Table walker requests started/completed, data/inst
system.cpu.itb.stage2_mmu.stage2_tlb.walker.requestOrigin_Requested::total            0                       # Table walker requests started/completed, data/inst
system.cpu.itb.stage2_mmu.stage2_tlb.walker.requestOrigin_Completed::Data            0                       # Table walker requests started/completed, data/inst
system.cpu.itb.stage2_mmu.stage2_tlb.walker.requestOrigin_Completed::Inst            0                       # Table walker requests started/completed, data/inst
system.cpu.itb.stage2_mmu.stage2_tlb.walker.requestOrigin_Completed::total            0                       # Table walker requests started/completed, data/inst
system.cpu.itb.stage2_mmu.stage2_tlb.walker.requestOrigin::total            0                       # Table walker requests started/completed, data/inst
system.cpu.itb.stage2_mmu.stage2_tlb.walker.power_state.pwrStateResidencyTicks::UNDEFINED 3280454222000                       # Cumulative time (in ticks) in various power states
system.cpu.itb.walker.walks                         0                       # Table walker walks requested
system.cpu.itb.walker.requestOrigin_Requested::Data            0                       # Table walker requests started/completed, data/inst
system.cpu.itb.walker.requestOrigin_Requested::Inst            0                       # Table walker requests started/completed, data/inst
system.cpu.itb.walker.requestOrigin_Requested::total            0                       # Table walker requests started/completed, data/inst
system.cpu.itb.walker.requestOrigin_Completed::Data            0                       # Table walker requests started/completed, data/inst
system.cpu.itb.walker.requestOrigin_Completed::Inst            0                       # Table walker requests started/completed, data/inst
system.cpu.itb.walker.requestOrigin_Completed::total            0                       # Table walker requests started/completed, data/inst
system.cpu.itb.walker.requestOrigin::total            0                       # Table walker requests started/completed, data/inst
system.cpu.itb.walker.power_state.pwrStateResidencyTicks::UNDEFINED 3280454222000                       # Cumulative time (in ticks) in various power states
system.cpu.itb_walker_cache.blocked_cycles::no_mshrs            0                       # number of cycles access was blocked
system.cpu.itb_walker_cache.blocked_cycles::no_targets            0                       # number of cycles access was blocked
[...]
system.switch_cpus.fetch.icacheStallCycles       216333                       # Number of cycles fetch is stalled on an Icache miss
system.switch_cpus.fetch.insts               35784434                       # Number of instructions fetch has processed
system.switch_cpus.fetch.branches             9794241                       # Number of branches that fetch encountered
system.switch_cpus.fetch.predictedBranches      5780103                       # Number of branches that fetch has predicted taken
system.switch_cpus.fetch.cycles              18089290                       # Number of cycles fetch has run and was not squashing or blocked
system.switch_cpus.fetch.squashCycles          603222                       # Number of cycles fetch has spent squashing
system.switch_cpus.fetch.cacheLines           7175334                       # Number of cache lines fetched
system.switch_cpus.fetch.icacheSquashes             4                       # Number of outstanding Icache misses that were squashed
system.switch_cpus.fetch.nisnDist::samples     18607234                       # Number of instructions fetched each cycle (Total)
system.switch_cpus.fetch.nisnDist::mean      1.969000                       # Number of instructions fetched each cycle (Total)
system.switch_cpus.fetch.nisnDist::stdev     2.495457                       # Number of instructions fetched each cycle (Total)
system.switch_cpus.fetch.nisnDist::underflows            0      0.00%      0.00% # Number of instructions fetched each cycle (Total)
system.switch_cpus.fetch.nisnDist::0          8638613     46.43%     46.43% # Number of instructions fetched each cycle (Total)
system.switch_cpus.fetch.nisnDist::1          1651816      8.88%     55.30% # Number of instructions fetched each cycle (Total)
system.switch_cpus.fetch.nisnDist::2          2153880     11.58%     66.88% # Number of instructions fetched each cycle (Total)
system.switch_cpus.fetch.nisnDist::3          1852676      9.96%     76.84% # Number of instructions fetched each cycle (Total)
system.switch_cpus.fetch.nisnDist::4          2054033     11.04%     87.87% # Number of instructions fetched each cycle (Total)
system.switch_cpus.fetch.nisnDist::5           122600      0.66%     88.53% # Number of instructions fetched each cycle (Total)
system.switch_cpus.fetch.nisnDist::6           130181      0.70%     89.23% # Number of instructions fetched each cycle (Total)
system.switch_cpus.fetch.nisnDist::7           517660      2.78%     92.02% # Number of instructions fetched each cycle (Total)
system.switch_cpus.fetch.nisnDist::8          1485775      7.98%    100.00% # Number of instructions fetched each cycle (Total)
system.switch_cpus.fetch.nisnDist::overflows            0      0.00%    100.00% # Number of instructions fetched each cycle (Total)
system.switch_cpus.fetch.nisnDist::min_value            0                       # Number of instructions fetched each cycle (Total)
system.switch_cpus.fetch.nisnDist::max_value            8                       # Number of instructions fetched each cycle (Total)
system.switch_cpus.fetch.nisnDist::total     18607234                       # Number of instructions fetched each cycle (Total)
system.switch_cpus.fetch.branchRate          0.526367                       # Number of branch fetches per cycle
system.switch_cpus.fetch.rate                1.923146                       # Number of inst fetches per cycle
system.switch_cpus.itb.instHits                     0                       # ITB inst hits
system.switch_cpus.itb.instMisses                   0                       # ITB inst misses
system.switch_cpus.itb.readHits                     0                       # DTB read hits
system.switch_cpus.itb.readMisses                   0                       # DTB read misses
system.switch_cpus.itb.writeHits                    0                       # DTB write hits
system.switch_cpus.itb.writeMisses                  0                       # DTB write misses
system.switch_cpus.itb.inserts                      0                       # Number of times an entry is inserted into the TLB
system.switch_cpus.itb.flushTlb                     0                       # Number of times complete TLB was flushed
system.switch_cpus.itb.flushTlbMva                  0                       # Number of times TLB was flushed by MVA
system.switch_cpus.itb.flushTlbMvaAsid              0                       # Number of times TLB was flushed by MVA & ASID
system.switch_cpus.itb.flushTlbAsid                 0                       # Number of times TLB was flushed by ASID
system.switch_cpus.itb.flushedEntries               0                       # Number of entries that have been flushed from TLB
system.switch_cpus.itb.alignFaults                  0                       # Number of TLB faults due to alignment restrictions
system.switch_cpus.itb.prefetchFaults               0                       # Number of TLB faults due to prefetch
system.switch_cpus.itb.domainFaults                 0                       # Number of TLB faults due to domain restrictions
system.switch_cpus.itb.permsFaults                  0                       # Number of TLB faults due to permissions restrictions
system.switch_cpus.itb.readAccesses                 0                       # DTB read accesses
system.switch_cpus.itb.writeAccesses                0                       # DTB write accesses
system.switch_cpus.itb.instAccesses                 0                       # ITB inst accesses
system.switch_cpus.itb.hits                         0                       # Total TLB (inst and data) hits
system.switch_cpus.itb.misses                       0                       # Total TLB (inst and data) misses
system.switch_cpus.itb.accesses                     0                       # Total TLB (inst and data) accesses
system.switch_cpus.itb.stage2_mmu.stage2_tlb.instHits            0                       # ITB inst hits
system.switch_cpus.itb.stage2_mmu.stage2_tlb.instMisses            0                       # ITB inst misses
system.switch_cpus.itb.stage2_mmu.stage2_tlb.readHits            0                       # DTB read hits
system.switch_cpus.itb.stage2_mmu.stage2_tlb.readMisses            0                       # DTB read misses
system.switch_cpus.itb.stage2_mmu.stage2_tlb.writeHits            0                       # DTB write hits
system.switch_cpus.itb.stage2_mmu.stage2_tlb.writeMisses            0                       # DTB write misses
system.switch_cpus.itb.stage2_mmu.stage2_tlb.inserts            0                       # Number of times an entry is inserted into the TLB
system.switch_cpus.itb.stage2_mmu.stage2_tlb.flushTlb            0                       # Number of times complete TLB was flushed
system.switch_cpus.itb.stage2_mmu.stage2_tlb.flushTlbMva            0                       # Number of times TLB was flushed by MVA
system.switch_cpus.itb.stage2_mmu.stage2_tlb.flushTlbMvaAsid            0                       # Number of times TLB was flushed by MVA & ASID
system.switch_cpus.itb.stage2_mmu.stage2_tlb.flushTlbAsid            0                       # Number of times TLB was flushed by ASID
system.switch_cpus.itb.stage2_mmu.stage2_tlb.flushedEntries            0                       # Number of entries that have been flushed from TLB
system.switch_cpus.itb.stage2_mmu.stage2_tlb.alignFaults            0                       # Number of TLB faults due to alignment restrictions
system.switch_cpus.itb.stage2_mmu.stage2_tlb.prefetchFaults            0                       # Number of TLB faults due to prefetch
system.switch_cpus.itb.stage2_mmu.stage2_tlb.domainFaults            0                       # Number of TLB faults due to domain restrictions
system.switch_cpus.itb.stage2_mmu.stage2_tlb.permsFaults            0                       # Number of TLB faults due to permissions restrictions
system.switch_cpus.itb.stage2_mmu.stage2_tlb.readAccesses            0                       # DTB read accesses
system.switch_cpus.itb.stage2_mmu.stage2_tlb.writeAccesses            0                       # DTB write accesses
system.switch_cpus.itb.stage2_mmu.stage2_tlb.instAccesses            0                       # ITB inst accesses
system.switch_cpus.itb.stage2_mmu.stage2_tlb.hits            0                       # Total TLB (inst and data) hits
system.switch_cpus.itb.stage2_mmu.stage2_tlb.misses            0                       # Total TLB (inst and data) misses
system.switch_cpus.itb.stage2_mmu.stage2_tlb.accesses            0                       # Total TLB (inst and data) accesses
system.switch_cpus.itb.stage2_mmu.stage2_tlb.walker.walks            0                       # Table walker walks requested
system.switch_cpus.itb.stage2_mmu.stage2_tlb.walker.requestOrigin_Requested::Data            0                       # Table walker requests started/completed, data/inst
system.switch_cpus.itb.stage2_mmu.stage2_tlb.walker.requestOrigin_Requested::Inst            0                       # Table walker requests started/completed, data/inst
system.switch_cpus.itb.stage2_mmu.stage2_tlb.walker.requestOrigin_Requested::total            0                       # Table walker requests started/completed, data/inst
system.switch_cpus.itb.stage2_mmu.stage2_tlb.walker.requestOrigin_Completed::Data            0                       # Table walker requests started/completed, data/inst
system.switch_cpus.itb.stage2_mmu.stage2_tlb.walker.requestOrigin_Completed::Inst            0                       # Table walker requests started/completed, data/inst
system.switch_cpus.itb.stage2_mmu.stage2_tlb.walker.requestOrigin_Completed::total            0                       # Table walker requests started/completed, data/inst
system.switch_cpus.itb.stage2_mmu.stage2_tlb.walker.requestOrigin::total            0                       # Table walker requests started/completed, data/inst
system.switch_cpus.itb.stage2_mmu.stage2_tlb.walker.power_state.pwrStateResidencyTicks::UNDEFINED   7442893600                       # Cumulative time (in ticks) in various power states
system.switch_cpus.itb.walker.walks                 0                       # Table walker walks requested
system.switch_cpus.itb.walker.requestOrigin_Requested::Data            0                       # Table walker requests started/completed, data/inst
system.switch_cpus.itb.walker.requestOrigin_Requested::Inst            0                       # Table walker requests started/completed, data/inst
system.switch_cpus.itb.walker.requestOrigin_Requested::total            0                       # Table walker requests started/completed, data/inst
system.switch_cpus.itb.walker.requestOrigin_Completed::Data            0                       # Table walker requests started/completed, data/inst
system.switch_cpus.itb.walker.requestOrigin_Completed::Inst            0                       # Table walker requests started/completed, data/inst
system.switch_cpus.itb.walker.requestOrigin_Completed::total            0                       # Table walker requests started/completed, data/inst
system.switch_cpus.itb.walker.requestOrigin::total            0                       # Table walker requests started/completed, data/inst
system.switch_cpus.itb.walker.power_state.pwrStateResidencyTicks::UNDEFINED   7442893600                       # Cumulative time (in ticks) in various power states
system.switch_cpus.lsq0.forwLoads              289755                       # Number of loads that had data forwarded from stores
system.switch_cpus.lsq0.squashedLoads         4784278                       # Number of loads squashed
system.switch_cpus.lsq0.ignoredResponses           90                       # Number of memory responses ignored because the instruction is squashed
system.switch_cpus.lsq0.memOrderViolation          375                       # Number of memory ordering violations
system.switch_cpus.lsq0.squashedStores        1053382                       # Number of stores squashed
system.switch_cpus.lsq0.rescheduledLoads          456                       # Number of loads that were rescheduled
system.switch_cpus.lsq0.blockedByCache         109333                       # Number of times an access to memory failed due to the cache being blocked
system.switch_cpus.power_state.pwrStateResidencyTicks::OFF   7442893600                       # Cumulative time (in ticks) in various power states
system.switch_cpus.rename.squashCycles         301603                       # Number of cycles rename is squashing
system.switch_cpus.rename.idleCycles          1875387                       # Number of cycles rename is idle
system.switch_cpus.rename.blockCycles         9196971                       # Number of cycles rename is blocking
system.switch_cpus.rename.serializeStallCycles            0                       # count of cycles rename stalledfor serializing inst
system.switch_cpus.rename.runCycles           5918853                       # Number of cycles rename is running
system.switch_cpus.rename.unblockCycles       1314420                       # Number of cycles rename is unblocking
system.switch_cpus.rename.renamedInsts       28612929                       # Number of instructions processed by rename
system.switch_cpus.rename.squashedInsts        912397                       # Number of squashed instructions processed by rename
system.switch_cpus.rename.ROBFullEvents         85354                       # Number of times rename has blocked due to ROB full
system.switch_cpus.rename.IQFullEvents         516935                       # Number of times rename has blocked due to IQ full
system.switch_cpus.rename.SQFullEvents            275                       # Number of times rename has blocked due to SQ full
system.switch_cpus.rename.fullRegistersEvents       880615                       # Number of times there has been no free registers
system.switch_cpus.rename.renamedOperands     33763069                       # Number of destination operands rename has renamed
system.switch_cpus.rename.lookups            48309502                       # Number of register rename lookups that rename has made
system.switch_cpus.rename.intLookups         31023711                       # Number of integer rename lookups
system.switch_cpus.rename.vecLookups              497                       # Number of vector rename lookups
system.switch_cpus.rename.vecPredLookups           47                       # Number of vector predicate rename lookups
system.switch_cpus.rename.committedMaps      11955066                       # Number of HB maps that are committed
system.switch_cpus.rename.undoneMaps         21808030                       # Number of HB maps that are undone due to squashing
system.switch_cpus.rename.serializing               0                       # count of serializing insts renamed
system.switch_cpus.rename.tempSerializing            0                       # count of temporary serializing insts renamed
system.switch_cpus.rename.skidInsts           1877976                       # count of insts added to the skid buffer
system.switch_cpus.rob.reads                 39340945                       # The number of ROB reads
system.switch_cpus.rob.writes                58757417                       # The number of ROB writes
system.switch_cpus.thread_0.numInsts         10000001                       # Number of Instructions committed
system.switch_cpus.thread_0.numOps           10217198                       # Number of Ops committed
system.switch_cpus.thread_0.numMemRefs              0                       # Number of Memory References
system.tol2bus.trans_dist::ReadResp            354385                       # Transaction distribution
system.tol2bus.trans_dist::WritebackDirty       109835                       # Transaction distribution
system.tol2bus.trans_dist::WritebackClean       287171                       # Transaction distribution
system.tol2bus.trans_dist::CleanEvict          144222                       # Transaction distribution
system.tol2bus.trans_dist::HardPFReq            33682                       # Transaction distribution
system.tol2bus.trans_dist::ReadExReq            36442                       # Transaction distribution
system.tol2bus.trans_dist::ReadExResp           36442                       # Transaction distribution
system.tol2bus.trans_dist::ReadCleanReq             4                       # Transaction distribution
system.tol2bus.trans_dist::ReadSharedReq       354381                       # Transaction distribution
system.tol2bus.pkt_count_system.cpu.icache.mem_side_port::system.l2.cpu_side_port            8                       # Packet count per connected requestor and responder (bytes)
system.tol2bus.pkt_count_system.cpu.dcache.mem_side_port::system.l2.cpu_side_port      1172469                       # Packet count per connected requestor and responder (bytes)
system.tol2bus.pkt_count::total               1172477                       # Packet count per connected requestor and responder (bytes)
system.tol2bus.pkt_size_system.cpu.icache.mem_side_port::system.l2.cpu_side_port          512                       # Cumulative packet size per connected requestor and responder (bytes)
system.tol2bus.pkt_size_system.cpu.dcache.mem_side_port::system.l2.cpu_side_port    100050688                       # Cumulative packet size per connected requestor and responder (bytes)
system.tol2bus.pkt_size::total              100051200                       # Cumulative packet size per connected requestor and responder (bytes)
system.tol2bus.snoops                          184087                       # Total snoops (count)
system.tol2bus.snoopTraffic                    791424                       # Total snoop traffic (bytes)
system.tol2bus.snoop_fanout::samples           574914                       # Request fanout histogram
system.tol2bus.snoop_fanout::mean            0.002068                       # Request fanout histogram
system.tol2bus.snoop_fanout::stdev           0.045430                       # Request fanout histogram
system.tol2bus.snoop_fanout::underflows             0      0.00%      0.00% # Request fanout histogram
system.tol2bus.snoop_fanout::0                 573725     99.79%     99.79% # Request fanout histogram
system.tol2bus.snoop_fanout::1                   1189      0.21%    100.00% # Request fanout histogram
system.tol2bus.snoop_fanout::2                      0      0.00%    100.00% # Request fanout histogram
system.tol2bus.snoop_fanout::3                      0      0.00%    100.00% # Request fanout histogram
system.tol2bus.snoop_fanout::4                      0      0.00%    100.00% # Request fanout histogram
system.tol2bus.snoop_fanout::overflows              0      0.00%    100.00% # Request fanout histogram
system.tol2bus.snoop_fanout::min_value              0                       # Request fanout histogram
system.tol2bus.snoop_fanout::max_value              1                       # Request fanout histogram
system.tol2bus.snoop_fanout::total             574914                       # Request fanout histogram
system.tol2bus.power_state.pwrStateResidencyTicks::UNDEFINED   7442893600                       # Cumulative time (in ticks) in various power states
system.tol2bus.reqLayer0.occupancy          937976800                       # Layer occupancy (ticks)
system.tol2bus.reqLayer0.utilization             12.6                       # Layer utilization (%)
system.tol2bus.respLayer0.occupancy              8000                       # Layer occupancy (ticks)
system.tol2bus.respLayer0.utilization             0.0                       # Layer utilization (%)
system.tol2bus.respLayer1.occupancy         781646000                       # Layer occupancy (ticks)
system.tol2bus.respLayer1.utilization            10.5                       # Layer utilization (%)
system.voltage_domain.voltage                       1                       # Voltage in Volts

---------- End Simulation Statistics   ----------
