
---------- Begin Simulation Statistics ----------
final_tick                               246332414000                       # Number of ticks from beginning of simulation (restored from checkpoints and never reset)
host_inst_rate                                 353138                       # Simulator instruction rate (inst/s)
host_mem_usage                               16975248                       # Number of bytes of host memory used
host_op_rate                                   353129                       # Simulator op (including micro ops) rate (op/s)
host_seconds                                     2.83                       # Real time elapsed on the host
host_tick_rate                              117691043                       # Simulator tick rate (ticks/s)
sim_freq                                 1000000000000                       # Frequency of simulated ticks
sim_insts                                     1000028                       # Number of instructions simulated
sim_ops                                       1000028                       # Number of ops (including micro ops) simulated
sim_seconds                                  0.000333                       # Number of seconds simulated
sim_ticks                                   333290800                       # Number of ticks simulated
system.cpu.Branches                                 3                       # Number of branches fetched
system.cpu.committedInsts                          25                       # Number of instructions committed
system.cpu.committedOps                            25                       # Number of ops (including micro ops) committed
system.cpu.idle_fraction                            0                       # Percentage of idle cycles
system.cpu.not_idle_fraction                        1                       # Percentage of non-idle cycles
system.cpu.numCycles                               25                       # number of cpu cycles simulated
system.cpu.numWorkItemsCompleted                    0                       # number of work items this cpu completed
system.cpu.numWorkItemsStarted                      0                       # number of work items this cpu started
system.cpu.num_busy_cycles                         25                       # Number of busy cycles
system.cpu.num_cc_register_reads                    3                       # number of times the CC registers were read
system.cpu.num_cc_register_writes                   3                       # number of times the CC registers were written
system.cpu.num_conditional_control_insts            1                       # number of instructions that are conditional controls
system.cpu.num_fp_alu_accesses                      0                       # Number of float alu accesses
system.cpu.num_fp_insts                             0                       # number of float instructions
system.cpu.num_fp_register_reads                    0                       # number of times the floating registers were read
system.cpu.num_fp_register_writes                   0                       # number of times the floating registers were written
system.cpu.num_func_calls                           2                       # number of times a function call or return occured
system.cpu.num_idle_cycles                          0                       # Number of idle cycles
system.cpu.num_int_alu_accesses                    23                       # Number of integer alu accesses
system.cpu.num_int_insts                           23                       # number of integer instructions
system.cpu.num_int_register_reads                  27                       # number of times the integer registers were read
system.cpu.num_int_register_writes                 19                       # number of times the integer registers were written
system.cpu.num_load_insts                           8                       # Number of load instructions
system.cpu.num_mem_refs                            11                       # number of memory refs
system.cpu.num_store_insts                          3                       # Number of store instructions
system.cpu.num_vec_alu_accesses                     0                       # Number of vector alu accesses
system.cpu.num_vec_insts                            0                       # number of vector instructions
system.cpu.num_vec_register_reads                   0                       # number of times the vector registers were read
system.cpu.num_vec_register_writes                  0                       # number of times the vector registers were written
system.cpu.op_class::No_OpClass                     0      0.00%      0.00% # Class of executed instruction
system.cpu.op_class::IntAlu                        14     56.00%     56.00% # Class of executed instruction
system.cpu.op_class::IntMult                        0      0.00%     56.00% # Class of executed instruction
system.cpu.op_class::IntDiv                         0      0.00%     56.00% # Class of executed instruction
system.cpu.op_class::FloatAdd                       0      0.00%     56.00% # Class of executed instruction
system.cpu.op_class::FloatCmp                       0      0.00%     56.00% # Class of executed instruction
system.cpu.op_class::FloatCvt                       0      0.00%     56.00% # Class of executed instruction
system.cpu.op_class::FloatMult                      0      0.00%     56.00% # Class of executed instruction
system.cpu.op_class::FloatMultAcc                   0      0.00%     56.00% # Class of executed instruction
system.cpu.op_class::FloatDiv                       0      0.00%     56.00% # Class of executed instruction
system.cpu.op_class::FloatMisc                      0      0.00%     56.00% # Class of executed instruction
system.cpu.op_class::FloatSqrt                      0      0.00%     56.00% # Class of executed instruction
system.cpu.op_class::SimdAdd                        0      0.00%     56.00% # Class of executed instruction
system.cpu.op_class::SimdAddAcc                     0      0.00%     56.00% # Class of executed instruction
system.cpu.op_class::SimdAlu                        0      0.00%     56.00% # Class of executed instruction
system.cpu.op_class::SimdCmp                        0      0.00%     56.00% # Class of executed instruction
system.cpu.op_class::SimdCvt                        0      0.00%     56.00% # Class of executed instruction
system.cpu.op_class::SimdMisc                       0      0.00%     56.00% # Class of executed instruction
system.cpu.op_class::SimdMult                       0      0.00%     56.00% # Class of executed instruction
system.cpu.op_class::SimdMultAcc                    0      0.00%     56.00% # Class of executed instruction
system.cpu.op_class::SimdShift                      0      0.00%     56.00% # Class of executed instruction
system.cpu.op_class::SimdShiftAcc                   0      0.00%     56.00% # Class of executed instruction
system.cpu.op_class::SimdDiv                        0      0.00%     56.00% # Class of executed instruction
system.cpu.op_class::SimdSqrt                       0      0.00%     56.00% # Class of executed instruction
system.cpu.op_class::SimdFloatAdd                   0      0.00%     56.00% # Class of executed instruction
system.cpu.op_class::SimdFloatAlu                   0      0.00%     56.00% # Class of executed instruction
system.cpu.op_class::SimdFloatCmp                   0      0.00%     56.00% # Class of executed instruction
system.cpu.op_class::SimdFloatCvt                   0      0.00%     56.00% # Class of executed instruction
system.cpu.op_class::SimdFloatDiv                   0      0.00%     56.00% # Class of executed instruction
system.cpu.op_class::SimdFloatMisc                  0      0.00%     56.00% # Class of executed instruction
system.cpu.op_class::SimdFloatMult                  0      0.00%     56.00% # Class of executed instruction
system.cpu.op_class::SimdFloatMultAcc               0      0.00%     56.00% # Class of executed instruction
system.cpu.op_class::SimdFloatSqrt                  0      0.00%     56.00% # Class of executed instruction
system.cpu.op_class::SimdReduceAdd                  0      0.00%     56.00% # Class of executed instruction
system.cpu.op_class::SimdReduceAlu                  0      0.00%     56.00% # Class of executed instruction
system.cpu.op_class::SimdReduceCmp                  0      0.00%     56.00% # Class of executed instruction
system.cpu.op_class::SimdFloatReduceAdd             0      0.00%     56.00% # Class of executed instruction
system.cpu.op_class::SimdFloatReduceCmp             0      0.00%     56.00% # Class of executed instruction
system.cpu.op_class::SimdAes                        0      0.00%     56.00% # Class of executed instruction
system.cpu.op_class::SimdAesMix                     0      0.00%     56.00% # Class of executed instruction
system.cpu.op_class::SimdSha1Hash                   0      0.00%     56.00% # Class of executed instruction
system.cpu.op_class::SimdSha1Hash2                  0      0.00%     56.00% # Class of executed instruction
system.cpu.op_class::SimdSha256Hash                 0      0.00%     56.00% # Class of executed instruction
system.cpu.op_class::SimdSha256Hash2                0      0.00%     56.00% # Class of executed instruction
system.cpu.op_class::SimdShaSigma2                  0      0.00%     56.00% # Class of executed instruction
system.cpu.op_class::SimdShaSigma3                  0      0.00%     56.00% # Class of executed instruction
system.cpu.op_class::SimdPredAlu                    0      0.00%     56.00% # Class of executed instruction
system.cpu.op_class::MemRead                        8     32.00%     88.00% # Class of executed instruction
system.cpu.op_class::MemWrite                       3     12.00%    100.00% # Class of executed instruction
system.cpu.op_class::FloatMemRead                   0      0.00%    100.00% # Class of executed instruction
system.cpu.op_class::FloatMemWrite                  0      0.00%    100.00% # Class of executed instruction
system.cpu.op_class::IprAccess                      0      0.00%    100.00% # Class of executed instruction
system.cpu.op_class::InstPrefetch                   0      0.00%    100.00% # Class of executed instruction
system.cpu.op_class::total                         25                       # Class of executed instruction
system.cpu.workload.numSyscalls                     0                       # Number of system calls
system.membus.snoop_filter.hit_multi_requests            0                       # Number of requests hitting in the snoop filter with multiple (>1) holders of the requested data.
system.membus.snoop_filter.hit_multi_snoops            0                       # Number of snoops hitting in the snoop filter with multiple (>1) holders of the requested data.
system.membus.snoop_filter.hit_single_requests           31                       # Number of requests hitting in the snoop filter with a single holder of the requested data.
system.membus.snoop_filter.hit_single_snoops            0                       # Number of snoops hitting in the snoop filter with a single holder of the requested data.
system.membus.snoop_filter.tot_requests          6368                       # Total number of requests made to the snoop filter.
system.membus.snoop_filter.tot_snoops               0                       # Total number of snoops made to the snoop filter.
system.switch_cpus.cc_regfile_reads            123939                       # number of cc regfile reads
system.switch_cpus.cc_regfile_writes           123948                       # number of cc regfile writes
system.switch_cpus.committedInsts             1000003                       # Number of Instructions Simulated
system.switch_cpus.committedOps               1000003                       # Number of Ops (including micro ops) Simulated
system.switch_cpus.cpi                       0.833200                       # CPI: Cycles Per Instruction
system.switch_cpus.cpi_total                 0.833200                       # CPI: Total CPI of All Threads
system.switch_cpus.idleCycles                     210                       # Total number of cycles that the CPU has spent unscheduled due to idling
system.switch_cpus.iew.branchMispredicts           42                       # Number of branch mispredicts detected at execute
system.switch_cpus.iew.exec_branches           124045                       # Number of branches executed
system.switch_cpus.iew.exec_nop                 20692                       # number of nop insts executed
system.switch_cpus.iew.exec_rate             1.202135                       # Inst execution rate
system.switch_cpus.iew.exec_refs               474902                       # number of memory reference insts executed
system.switch_cpus.iew.exec_stores             154718                       # Number of stores executed
system.switch_cpus.iew.exec_swp                     0                       # number of swp insts executed
system.switch_cpus.iew.iewBlockCycles             788                       # Number of cycles IEW is blocking
system.switch_cpus.iew.iewDispLoadInsts        320573                       # Number of dispatched load instructions
system.switch_cpus.iew.iewDispNonSpecInsts            0                       # Number of dispatched non-speculative instructions
system.switch_cpus.iew.iewDispSquashedInsts            0                       # Number of squashed instructions skipped by dispatch
system.switch_cpus.iew.iewDispStoreInsts       155093                       # Number of dispatched store instructions
system.switch_cpus.iew.iewDispatchedInsts      1023756                       # Number of instructions dispatched to IQ
system.switch_cpus.iew.iewExecLoadInsts        320184                       # Number of load instructions executed
system.switch_cpus.iew.iewExecSquashedInsts           84                       # Number of squashed instructions skipped in execute
system.switch_cpus.iew.iewExecutedInsts       1001621                       # Number of executed instructions
system.switch_cpus.iew.iewIQFullEvents              0                       # Number of times the IQ has become full, causing a stall
system.switch_cpus.iew.iewIdleCycles                0                       # Number of cycles IEW is idle
system.switch_cpus.iew.iewLSQFullEvents          2763                       # Number of times the LSQ has become full, causing a stall
system.switch_cpus.iew.iewSquashCycles             66                       # Number of cycles IEW is squashing
system.switch_cpus.iew.iewUnblockCycles          2766                       # Number of cycles IEW is unblocking
system.switch_cpus.iew.memOrderViolationEvents           27                       # Number of memory order violations
system.switch_cpus.iew.predictedNotTakenIncorrect           40                       # Number of branches that were predicted not taken incorrectly
system.switch_cpus.iew.predictedTakenIncorrect            2                       # Number of branches that were predicted taken incorrectly
system.switch_cpus.iew.wb_consumers           1023451                       # num instructions consuming a value
system.switch_cpus.iew.wb_count               1001383                       # cumulative count of insts written-back
system.switch_cpus.iew.wb_fanout             0.698089                       # average fanout of values written-back
system.switch_cpus.iew.wb_producers            714460                       # num instructions producing a value
system.switch_cpus.iew.wb_rate               1.201849                       # insts written-back per cycle
system.switch_cpus.iew.wb_sent                1001436                       # cumulative count of insts sent to commit
system.switch_cpus.int_regfile_reads          1114832                       # number of integer regfile reads
system.switch_cpus.int_regfile_writes          764081                       # number of integer regfile writes
system.switch_cpus.ipc                       1.200193                       # IPC: Instructions Per Cycle
system.switch_cpus.ipc_total                 1.200193                       # IPC: Total IPC of All Threads
system.switch_cpus.iq.FU_type_0::No_OpClass           12      0.00%      0.00% # Type of FU issued
system.switch_cpus.iq.FU_type_0::IntAlu        526718     52.58%     52.58% # Type of FU issued
system.switch_cpus.iq.FU_type_0::IntMult            0      0.00%     52.58% # Type of FU issued
system.switch_cpus.iq.FU_type_0::IntDiv             0      0.00%     52.58% # Type of FU issued
system.switch_cpus.iq.FU_type_0::FloatAdd            0      0.00%     52.58% # Type of FU issued
system.switch_cpus.iq.FU_type_0::FloatCmp            0      0.00%     52.58% # Type of FU issued
system.switch_cpus.iq.FU_type_0::FloatCvt            0      0.00%     52.58% # Type of FU issued
system.switch_cpus.iq.FU_type_0::FloatMult            0      0.00%     52.58% # Type of FU issued
system.switch_cpus.iq.FU_type_0::FloatMultAcc            0      0.00%     52.58% # Type of FU issued
system.switch_cpus.iq.FU_type_0::FloatDiv            0      0.00%     52.58% # Type of FU issued
system.switch_cpus.iq.FU_type_0::FloatMisc            0      0.00%     52.58% # Type of FU issued
system.switch_cpus.iq.FU_type_0::FloatSqrt            0      0.00%     52.58% # Type of FU issued
system.switch_cpus.iq.FU_type_0::SimdAdd            0      0.00%     52.58% # Type of FU issued
system.switch_cpus.iq.FU_type_0::SimdAddAcc            0      0.00%     52.58% # Type of FU issued
system.switch_cpus.iq.FU_type_0::SimdAlu            0      0.00%     52.58% # Type of FU issued
system.switch_cpus.iq.FU_type_0::SimdCmp            0      0.00%     52.58% # Type of FU issued
system.switch_cpus.iq.FU_type_0::SimdCvt            0      0.00%     52.58% # Type of FU issued
system.switch_cpus.iq.FU_type_0::SimdMisc            0      0.00%     52.58% # Type of FU issued
system.switch_cpus.iq.FU_type_0::SimdMult            0      0.00%     52.58% # Type of FU issued
system.switch_cpus.iq.FU_type_0::SimdMultAcc            0      0.00%     52.58% # Type of FU issued
system.switch_cpus.iq.FU_type_0::SimdShift            0      0.00%     52.58% # Type of FU issued
system.switch_cpus.iq.FU_type_0::SimdShiftAcc            0      0.00%     52.58% # Type of FU issued
system.switch_cpus.iq.FU_type_0::SimdDiv            0      0.00%     52.58% # Type of FU issued
system.switch_cpus.iq.FU_type_0::SimdSqrt            0      0.00%     52.58% # Type of FU issued
system.switch_cpus.iq.FU_type_0::SimdFloatAdd            0      0.00%     52.58% # Type of FU issued
system.switch_cpus.iq.FU_type_0::SimdFloatAlu            0      0.00%     52.58% # Type of FU issued
system.switch_cpus.iq.FU_type_0::SimdFloatCmp            0      0.00%     52.58% # Type of FU issued
system.switch_cpus.iq.FU_type_0::SimdFloatCvt            0      0.00%     52.58% # Type of FU issued
system.switch_cpus.iq.FU_type_0::SimdFloatDiv            0      0.00%     52.58% # Type of FU issued
system.switch_cpus.iq.FU_type_0::SimdFloatMisc            0      0.00%     52.58% # Type of FU issued
system.switch_cpus.iq.FU_type_0::SimdFloatMult            0      0.00%     52.58% # Type of FU issued
system.switch_cpus.iq.FU_type_0::SimdFloatMultAcc            0      0.00%     52.58% # Type of FU issued
system.switch_cpus.iq.FU_type_0::SimdFloatSqrt            0      0.00%     52.58% # Type of FU issued
system.switch_cpus.iq.FU_type_0::SimdReduceAdd            0      0.00%     52.58% # Type of FU issued
system.switch_cpus.iq.FU_type_0::SimdReduceAlu            0      0.00%     52.58% # Type of FU issued
system.switch_cpus.iq.FU_type_0::SimdReduceCmp            0      0.00%     52.58% # Type of FU issued
system.switch_cpus.iq.FU_type_0::SimdFloatReduceAdd            0      0.00%     52.58% # Type of FU issued
system.switch_cpus.iq.FU_type_0::SimdFloatReduceCmp            0      0.00%     52.58% # Type of FU issued
system.switch_cpus.iq.FU_type_0::SimdAes            0      0.00%     52.58% # Type of FU issued
system.switch_cpus.iq.FU_type_0::SimdAesMix            0      0.00%     52.58% # Type of FU issued
system.switch_cpus.iq.FU_type_0::SimdSha1Hash            0      0.00%     52.58% # Type of FU issued
system.switch_cpus.iq.FU_type_0::SimdSha1Hash2            0      0.00%     52.58% # Type of FU issued
system.switch_cpus.iq.FU_type_0::SimdSha256Hash            0      0.00%     52.58% # Type of FU issued
system.switch_cpus.iq.FU_type_0::SimdSha256Hash2            0      0.00%     52.58% # Type of FU issued
system.switch_cpus.iq.FU_type_0::SimdShaSigma2            0      0.00%     52.58% # Type of FU issued
system.switch_cpus.iq.FU_type_0::SimdShaSigma3            0      0.00%     52.58% # Type of FU issued
system.switch_cpus.iq.FU_type_0::SimdPredAlu            0      0.00%     52.58% # Type of FU issued
system.switch_cpus.iq.FU_type_0::MemRead       320232     31.97%     84.55% # Type of FU issued
system.switch_cpus.iq.FU_type_0::MemWrite       154743     15.45%    100.00% # Type of FU issued
system.switch_cpus.iq.FU_type_0::FloatMemRead            0      0.00%    100.00% # Type of FU issued
system.switch_cpus.iq.FU_type_0::FloatMemWrite            0      0.00%    100.00% # Type of FU issued
system.switch_cpus.iq.FU_type_0::IprAccess            0      0.00%    100.00% # Type of FU issued
system.switch_cpus.iq.FU_type_0::InstPrefetch            0      0.00%    100.00% # Type of FU issued
system.switch_cpus.iq.FU_type_0::total        1001705                       # Type of FU issued
system.switch_cpus.iq.fp_alu_accesses               0                       # Number of floating point alu accesses
system.switch_cpus.iq.fp_inst_queue_reads            0                       # Number of floating instruction queue reads
system.switch_cpus.iq.fp_inst_queue_wakeup_accesses            0                       # Number of floating instruction queue wakeup accesses
system.switch_cpus.iq.fp_inst_queue_writes            0                       # Number of floating instruction queue writes
system.switch_cpus.iq.fu_busy_cnt              308049                       # FU busy when requested
system.switch_cpus.iq.fu_busy_rate           0.307525                       # FU busy rate (busy events/executed inst)
system.switch_cpus.iq.fu_full::No_OpClass            0      0.00%      0.00% # attempts to use FU when none available
system.switch_cpus.iq.fu_full::IntAlu          103018     33.44%     33.44% # attempts to use FU when none available
system.switch_cpus.iq.fu_full::IntMult              0      0.00%     33.44% # attempts to use FU when none available
system.switch_cpus.iq.fu_full::IntDiv               0      0.00%     33.44% # attempts to use FU when none available
system.switch_cpus.iq.fu_full::FloatAdd             0      0.00%     33.44% # attempts to use FU when none available
system.switch_cpus.iq.fu_full::FloatCmp             0      0.00%     33.44% # attempts to use FU when none available
system.switch_cpus.iq.fu_full::FloatCvt             0      0.00%     33.44% # attempts to use FU when none available
system.switch_cpus.iq.fu_full::FloatMult            0      0.00%     33.44% # attempts to use FU when none available
system.switch_cpus.iq.fu_full::FloatMultAcc            0      0.00%     33.44% # attempts to use FU when none available
system.switch_cpus.iq.fu_full::FloatDiv             0      0.00%     33.44% # attempts to use FU when none available
system.switch_cpus.iq.fu_full::FloatMisc            0      0.00%     33.44% # attempts to use FU when none available
system.switch_cpus.iq.fu_full::FloatSqrt            0      0.00%     33.44% # attempts to use FU when none available
system.switch_cpus.iq.fu_full::SimdAdd              0      0.00%     33.44% # attempts to use FU when none available
system.switch_cpus.iq.fu_full::SimdAddAcc            0      0.00%     33.44% # attempts to use FU when none available
system.switch_cpus.iq.fu_full::SimdAlu              0      0.00%     33.44% # attempts to use FU when none available
system.switch_cpus.iq.fu_full::SimdCmp              0      0.00%     33.44% # attempts to use FU when none available
system.switch_cpus.iq.fu_full::SimdCvt              0      0.00%     33.44% # attempts to use FU when none available
system.switch_cpus.iq.fu_full::SimdMisc             0      0.00%     33.44% # attempts to use FU when none available
system.switch_cpus.iq.fu_full::SimdMult             0      0.00%     33.44% # attempts to use FU when none available
system.switch_cpus.iq.fu_full::SimdMultAcc            0      0.00%     33.44% # attempts to use FU when none available
system.switch_cpus.iq.fu_full::SimdShift            0      0.00%     33.44% # attempts to use FU when none available
system.switch_cpus.iq.fu_full::SimdShiftAcc            0      0.00%     33.44% # attempts to use FU when none available
system.switch_cpus.iq.fu_full::SimdDiv              0      0.00%     33.44% # attempts to use FU when none available
system.switch_cpus.iq.fu_full::SimdSqrt             0      0.00%     33.44% # attempts to use FU when none available
system.switch_cpus.iq.fu_full::SimdFloatAdd            0      0.00%     33.44% # attempts to use FU when none available
system.switch_cpus.iq.fu_full::SimdFloatAlu            0      0.00%     33.44% # attempts to use FU when none available
system.switch_cpus.iq.fu_full::SimdFloatCmp            0      0.00%     33.44% # attempts to use FU when none available
system.switch_cpus.iq.fu_full::SimdFloatCvt            0      0.00%     33.44% # attempts to use FU when none available
system.switch_cpus.iq.fu_full::SimdFloatDiv            0      0.00%     33.44% # attempts to use FU when none available
system.switch_cpus.iq.fu_full::SimdFloatMisc            0      0.00%     33.44% # attempts to use FU when none available
system.switch_cpus.iq.fu_full::SimdFloatMult            0      0.00%     33.44% # attempts to use FU when none available
system.switch_cpus.iq.fu_full::SimdFloatMultAcc            0      0.00%     33.44% # attempts to use FU when none available
system.switch_cpus.iq.fu_full::SimdFloatSqrt            0      0.00%     33.44% # attempts to use FU when none available
system.switch_cpus.iq.fu_full::SimdReduceAdd            0      0.00%     33.44% # attempts to use FU when none available
system.switch_cpus.iq.fu_full::SimdReduceAlu            0      0.00%     33.44% # attempts to use FU when none available
system.switch_cpus.iq.fu_full::SimdReduceCmp            0      0.00%     33.44% # attempts to use FU when none available
system.switch_cpus.iq.fu_full::SimdFloatReduceAdd            0      0.00%     33.44% # attempts to use FU when none available
system.switch_cpus.iq.fu_full::SimdFloatReduceCmp            0      0.00%     33.44% # attempts to use FU when none available
system.switch_cpus.iq.fu_full::SimdAes              0      0.00%     33.44% # attempts to use FU when none available
system.switch_cpus.iq.fu_full::SimdAesMix            0      0.00%     33.44% # attempts to use FU when none available
system.switch_cpus.iq.fu_full::SimdSha1Hash            0      0.00%     33.44% # attempts to use FU when none available
system.switch_cpus.iq.fu_full::SimdSha1Hash2            0      0.00%     33.44% # attempts to use FU when none available
system.switch_cpus.iq.fu_full::SimdSha256Hash            0      0.00%     33.44% # attempts to use FU when none available
system.switch_cpus.iq.fu_full::SimdSha256Hash2            0      0.00%     33.44% # attempts to use FU when none available
system.switch_cpus.iq.fu_full::SimdShaSigma2            0      0.00%     33.44% # attempts to use FU when none available
system.switch_cpus.iq.fu_full::SimdShaSigma3            0      0.00%     33.44% # attempts to use FU when none available
system.switch_cpus.iq.fu_full::SimdPredAlu            0      0.00%     33.44% # attempts to use FU when none available
system.switch_cpus.iq.fu_full::MemRead         197513     64.12%     97.56% # attempts to use FU when none available
system.switch_cpus.iq.fu_full::MemWrite          7518      2.44%    100.00% # attempts to use FU when none available
system.switch_cpus.iq.fu_full::FloatMemRead            0      0.00%    100.00% # attempts to use FU when none available
system.switch_cpus.iq.fu_full::FloatMemWrite            0      0.00%    100.00% # attempts to use FU when none available
system.switch_cpus.iq.fu_full::IprAccess            0      0.00%    100.00% # attempts to use FU when none available
system.switch_cpus.iq.fu_full::InstPrefetch            0      0.00%    100.00% # attempts to use FU when none available
system.switch_cpus.iq.int_alu_accesses        1309742                       # Number of integer alu accesses
system.switch_cpus.iq.int_inst_queue_reads      3144528                       # Number of integer instruction queue reads
system.switch_cpus.iq.int_inst_queue_wakeup_accesses      1001383                       # Number of integer instruction queue wakeup accesses
system.switch_cpus.iq.int_inst_queue_writes      1006049                       # Number of integer instruction queue writes
system.switch_cpus.iq.iqInstsAdded            1003064                       # Number of instructions added to the IQ (excludes non-spec)
system.switch_cpus.iq.iqInstsIssued           1001705                       # Number of instructions issued
system.switch_cpus.iq.iqSquashedInstsExamined         2958                       # Number of squashed instructions iterated over during squash; mainly for profiling
system.switch_cpus.iq.iqSquashedInstsIssued           77                       # Number of squashed instructions issued
system.switch_cpus.iq.iqSquashedOperandsExamined         2294                       # Number of squashed operands that are examined and possibly removed from graph
system.switch_cpus.iq.issued_per_cycle::samples       832992                       # Number of insts issued each cycle
system.switch_cpus.iq.issued_per_cycle::mean     1.202539                       # Number of insts issued each cycle
system.switch_cpus.iq.issued_per_cycle::stdev     1.281980                       # Number of insts issued each cycle
system.switch_cpus.iq.issued_per_cycle::underflows            0      0.00%      0.00% # Number of insts issued each cycle
system.switch_cpus.iq.issued_per_cycle::0       377040     45.26%     45.26% # Number of insts issued each cycle
system.switch_cpus.iq.issued_per_cycle::1       121295     14.56%     59.82% # Number of insts issued each cycle
system.switch_cpus.iq.issued_per_cycle::2       152646     18.33%     78.15% # Number of insts issued each cycle
system.switch_cpus.iq.issued_per_cycle::3       152933     18.36%     96.51% # Number of insts issued each cycle
system.switch_cpus.iq.issued_per_cycle::4        29071      3.49%    100.00% # Number of insts issued each cycle
system.switch_cpus.iq.issued_per_cycle::5            7      0.00%    100.00% # Number of insts issued each cycle
system.switch_cpus.iq.issued_per_cycle::6            0      0.00%    100.00% # Number of insts issued each cycle
system.switch_cpus.iq.issued_per_cycle::7            0      0.00%    100.00% # Number of insts issued each cycle
system.switch_cpus.iq.issued_per_cycle::8            0      0.00%    100.00% # Number of insts issued each cycle
system.switch_cpus.iq.issued_per_cycle::overflows            0      0.00%    100.00% # Number of insts issued each cycle
system.switch_cpus.iq.issued_per_cycle::min_value            0                       # Number of insts issued each cycle
system.switch_cpus.iq.issued_per_cycle::max_value            5                       # Number of insts issued each cycle
system.switch_cpus.iq.issued_per_cycle::total       832992                       # Number of insts issued each cycle
system.switch_cpus.iq.rate                   1.202235                       # Inst issue rate
system.switch_cpus.iq.vec_alu_accesses              0                       # Number of vector alu accesses
system.switch_cpus.iq.vec_inst_queue_reads            0                       # Number of vector instruction queue reads
system.switch_cpus.iq.vec_inst_queue_wakeup_accesses            0                       # Number of vector instruction queue wakeup accesses
system.switch_cpus.iq.vec_inst_queue_writes            0                       # Number of vector instruction queue writes
system.switch_cpus.memDep0.conflictingLoads       189388                       # Number of conflicting loads.
system.switch_cpus.memDep0.conflictingStores        73558                       # Number of conflicting stores.
system.switch_cpus.memDep0.insertedLoads       320573                       # Number of loads inserted to the mem dependence unit.
system.switch_cpus.memDep0.insertedStores       155093                       # Number of stores inserted to the mem dependence unit.
system.switch_cpus.misc_regfile_reads         2231943                       # number of misc regfile reads
system.switch_cpus.misc_regfile_writes              1                       # number of misc regfile writes
system.switch_cpus.numCycles                   833202                       # number of cpu cycles simulated
system.switch_cpus.numWorkItemsCompleted            0                       # number of work items this cpu completed
system.switch_cpus.numWorkItemsStarted              0                       # number of work items this cpu started
system.switch_cpus.timesIdled                       4                       # Number of times that the entire CPU went into an idle state and unscheduled itself
system.switch_cpus.vec_regfile_writes              44                       # number of vector regfile writes
system.tol2bus.snoop_filter.hit_multi_requests            0                       # Number of requests hitting in the snoop filter with multiple (>1) holders of the requested data.
system.tol2bus.snoop_filter.hit_multi_snoops            0                       # Number of snoops hitting in the snoop filter with multiple (>1) holders of the requested data.
system.tol2bus.snoop_filter.hit_single_requests        32220                       # Number of requests hitting in the snoop filter with a single holder of the requested data.
system.tol2bus.snoop_filter.hit_single_snoops            0                       # Number of snoops hitting in the snoop filter with a single holder of the requested data.
system.tol2bus.snoop_filter.tot_requests        64702                       # Total number of requests made to the snoop filter.
system.tol2bus.snoop_filter.tot_snoops              0                       # Total number of snoops made to the snoop filter.
system.clk_domain.clock                          1000                       # Clock period in ticks
system.cpu.dcache.demand_hits::.cpu.data            7                       # number of demand (read+write) hits
system.cpu.dcache.demand_hits::.switch_cpus.data       261535                       # number of demand (read+write) hits
system.cpu.dcache.demand_hits::total           261542                       # number of demand (read+write) hits
system.cpu.dcache.overall_hits::.cpu.data            7                       # number of overall hits
system.cpu.dcache.overall_hits::.switch_cpus.data       261535                       # number of overall hits
system.cpu.dcache.overall_hits::total          261542                       # number of overall hits
system.cpu.dcache.demand_misses::.cpu.data            4                       # number of demand (read+write) misses
system.cpu.dcache.demand_misses::.switch_cpus.data        33793                       # number of demand (read+write) misses
system.cpu.dcache.demand_misses::total          33797                       # number of demand (read+write) misses
system.cpu.dcache.overall_misses::.cpu.data            4                       # number of overall misses
system.cpu.dcache.overall_misses::.switch_cpus.data        33793                       # number of overall misses
system.cpu.dcache.overall_misses::total         33797                       # number of overall misses
system.cpu.dcache.demand_miss_latency::.switch_cpus.data    697611998                       # number of demand (read+write) miss cycles
system.cpu.dcache.demand_miss_latency::total    697611998                       # number of demand (read+write) miss cycles
system.cpu.dcache.overall_miss_latency::.switch_cpus.data    697611998                       # number of overall miss cycles
system.cpu.dcache.overall_miss_latency::total    697611998                       # number of overall miss cycles
system.cpu.dcache.demand_accesses::.cpu.data           11                       # number of demand (read+write) accesses
system.cpu.dcache.demand_accesses::.switch_cpus.data       295328                       # number of demand (read+write) accesses
system.cpu.dcache.demand_accesses::total       295339                       # number of demand (read+write) accesses
system.cpu.dcache.overall_accesses::.cpu.data           11                       # number of overall (read+write) accesses
system.cpu.dcache.overall_accesses::.switch_cpus.data       295328                       # number of overall (read+write) accesses
system.cpu.dcache.overall_accesses::total       295339                       # number of overall (read+write) accesses
system.cpu.dcache.demand_miss_rate::.cpu.data     0.363636                       # miss rate for demand accesses
system.cpu.dcache.demand_miss_rate::.switch_cpus.data     0.114425                       # miss rate for demand accesses
system.cpu.dcache.demand_miss_rate::total     0.114435                       # miss rate for demand accesses
system.cpu.dcache.overall_miss_rate::.cpu.data     0.363636                       # miss rate for overall accesses
system.cpu.dcache.overall_miss_rate::.switch_cpus.data     0.114425                       # miss rate for overall accesses
system.cpu.dcache.overall_miss_rate::total     0.114435                       # miss rate for overall accesses
system.cpu.dcache.demand_avg_miss_latency::.switch_cpus.data 20643.683544                       # average overall miss latency
system.cpu.dcache.demand_avg_miss_latency::total 20641.240288                       # average overall miss latency
system.cpu.dcache.overall_avg_miss_latency::.switch_cpus.data 20643.683544                       # average overall miss latency
system.cpu.dcache.overall_avg_miss_latency::total 20641.240288                       # average overall miss latency
system.cpu.dcache.blocked_cycles::no_mshrs         2138                       # number of cycles access was blocked
system.cpu.dcache.blocked_cycles::no_targets            0                       # number of cycles access was blocked
system.cpu.dcache.blocked::no_mshrs               179                       # number of cycles access was blocked
system.cpu.dcache.blocked::no_targets               0                       # number of cycles access was blocked
system.cpu.dcache.avg_blocked_cycles::no_mshrs    11.944134                       # average number of cycles each access was blocked
system.cpu.dcache.avg_blocked_cycles::no_targets          nan                       # average number of cycles each access was blocked
system.cpu.dcache.writebacks::.writebacks        32220                       # number of writebacks
system.cpu.dcache.writebacks::total             32220                       # number of writebacks
system.cpu.dcache.demand_mshr_hits::.switch_cpus.data         1320                       # number of demand (read+write) MSHR hits
system.cpu.dcache.demand_mshr_hits::total         1320                       # number of demand (read+write) MSHR hits
system.cpu.dcache.overall_mshr_hits::.switch_cpus.data         1320                       # number of overall MSHR hits
system.cpu.dcache.overall_mshr_hits::total         1320                       # number of overall MSHR hits
system.cpu.dcache.demand_mshr_misses::.switch_cpus.data        32473                       # number of demand (read+write) MSHR misses
system.cpu.dcache.demand_mshr_misses::total        32473                       # number of demand (read+write) MSHR misses
system.cpu.dcache.overall_mshr_misses::.switch_cpus.data        32473                       # number of overall MSHR misses
system.cpu.dcache.overall_mshr_misses::total        32473                       # number of overall MSHR misses
system.cpu.dcache.demand_mshr_miss_latency::.switch_cpus.data    654786798                       # number of demand (read+write) MSHR miss cycles
system.cpu.dcache.demand_mshr_miss_latency::total    654786798                       # number of demand (read+write) MSHR miss cycles
system.cpu.dcache.overall_mshr_miss_latency::.switch_cpus.data    654786798                       # number of overall MSHR miss cycles
system.cpu.dcache.overall_mshr_miss_latency::total    654786798                       # number of overall MSHR miss cycles
system.cpu.dcache.demand_mshr_miss_rate::.switch_cpus.data     0.109956                       # mshr miss rate for demand accesses
system.cpu.dcache.demand_mshr_miss_rate::total     0.109952                       # mshr miss rate for demand accesses
system.cpu.dcache.overall_mshr_miss_rate::.switch_cpus.data     0.109956                       # mshr miss rate for overall accesses
system.cpu.dcache.overall_mshr_miss_rate::total     0.109952                       # mshr miss rate for overall accesses
system.cpu.dcache.demand_avg_mshr_miss_latency::.switch_cpus.data 20164.037754                       # average overall mshr miss latency
system.cpu.dcache.demand_avg_mshr_miss_latency::total 20164.037754                       # average overall mshr miss latency
system.cpu.dcache.overall_avg_mshr_miss_latency::.switch_cpus.data 20164.037754                       # average overall mshr miss latency
system.cpu.dcache.overall_avg_mshr_miss_latency::total 20164.037754                       # average overall mshr miss latency
system.cpu.dcache.replacements                  32220                       # number of replacements
system.cpu.dcache.ReadReq_hits::.cpu.data            6                       # number of ReadReq hits
system.cpu.dcache.ReadReq_hits::.switch_cpus.data       123324                       # number of ReadReq hits
system.cpu.dcache.ReadReq_hits::total          123330                       # number of ReadReq hits
system.cpu.dcache.ReadReq_misses::.cpu.data            2                       # number of ReadReq misses
system.cpu.dcache.ReadReq_misses::.switch_cpus.data        17390                       # number of ReadReq misses
system.cpu.dcache.ReadReq_misses::total         17392                       # number of ReadReq misses
system.cpu.dcache.ReadReq_miss_latency::.switch_cpus.data    234600000                       # number of ReadReq miss cycles
system.cpu.dcache.ReadReq_miss_latency::total    234600000                       # number of ReadReq miss cycles
system.cpu.dcache.ReadReq_accesses::.cpu.data            8                       # number of ReadReq accesses(hits+misses)
system.cpu.dcache.ReadReq_accesses::.switch_cpus.data       140714                       # number of ReadReq accesses(hits+misses)
system.cpu.dcache.ReadReq_accesses::total       140722                       # number of ReadReq accesses(hits+misses)
system.cpu.dcache.ReadReq_miss_rate::.cpu.data     0.250000                       # miss rate for ReadReq accesses
system.cpu.dcache.ReadReq_miss_rate::.switch_cpus.data     0.123584                       # miss rate for ReadReq accesses
system.cpu.dcache.ReadReq_miss_rate::total     0.123591                       # miss rate for ReadReq accesses
system.cpu.dcache.ReadReq_avg_miss_latency::.switch_cpus.data 13490.511788                       # average ReadReq miss latency
system.cpu.dcache.ReadReq_avg_miss_latency::total 13488.960442                       # average ReadReq miss latency
system.cpu.dcache.ReadReq_mshr_hits::.switch_cpus.data         1294                       # number of ReadReq MSHR hits
system.cpu.dcache.ReadReq_mshr_hits::total         1294                       # number of ReadReq MSHR hits
system.cpu.dcache.ReadReq_mshr_misses::.switch_cpus.data        16096                       # number of ReadReq MSHR misses
system.cpu.dcache.ReadReq_mshr_misses::total        16096                       # number of ReadReq MSHR misses
system.cpu.dcache.ReadReq_mshr_miss_latency::.switch_cpus.data    205841200                       # number of ReadReq MSHR miss cycles
system.cpu.dcache.ReadReq_mshr_miss_latency::total    205841200                       # number of ReadReq MSHR miss cycles
system.cpu.dcache.ReadReq_mshr_miss_rate::.switch_cpus.data     0.114388                       # mshr miss rate for ReadReq accesses
system.cpu.dcache.ReadReq_mshr_miss_rate::total     0.114382                       # mshr miss rate for ReadReq accesses
system.cpu.dcache.ReadReq_avg_mshr_miss_latency::.switch_cpus.data 12788.344930                       # average ReadReq mshr miss latency
system.cpu.dcache.ReadReq_avg_mshr_miss_latency::total 12788.344930                       # average ReadReq mshr miss latency
system.cpu.dcache.WriteReq_hits::.cpu.data            1                       # number of WriteReq hits
system.cpu.dcache.WriteReq_hits::.switch_cpus.data       138211                       # number of WriteReq hits
system.cpu.dcache.WriteReq_hits::total         138212                       # number of WriteReq hits
system.cpu.dcache.WriteReq_misses::.cpu.data            2                       # number of WriteReq misses
system.cpu.dcache.WriteReq_misses::.switch_cpus.data        16403                       # number of WriteReq misses
system.cpu.dcache.WriteReq_misses::total        16405                       # number of WriteReq misses
system.cpu.dcache.WriteReq_miss_latency::.switch_cpus.data    463011998                       # number of WriteReq miss cycles
system.cpu.dcache.WriteReq_miss_latency::total    463011998                       # number of WriteReq miss cycles
system.cpu.dcache.WriteReq_accesses::.cpu.data            3                       # number of WriteReq accesses(hits+misses)
system.cpu.dcache.WriteReq_accesses::.switch_cpus.data       154614                       # number of WriteReq accesses(hits+misses)
system.cpu.dcache.WriteReq_accesses::total       154617                       # number of WriteReq accesses(hits+misses)
system.cpu.dcache.WriteReq_miss_rate::.cpu.data     0.666667                       # miss rate for WriteReq accesses
system.cpu.dcache.WriteReq_miss_rate::.switch_cpus.data     0.106090                       # miss rate for WriteReq accesses
system.cpu.dcache.WriteReq_miss_rate::total     0.106101                       # miss rate for WriteReq accesses
system.cpu.dcache.WriteReq_avg_miss_latency::.switch_cpus.data 28227.275376                       # average WriteReq miss latency
system.cpu.dcache.WriteReq_avg_miss_latency::total 28223.834075                       # average WriteReq miss latency
system.cpu.dcache.WriteReq_mshr_hits::.switch_cpus.data           26                       # number of WriteReq MSHR hits
system.cpu.dcache.WriteReq_mshr_hits::total           26                       # number of WriteReq MSHR hits
system.cpu.dcache.WriteReq_mshr_misses::.switch_cpus.data        16377                       # number of WriteReq MSHR misses
system.cpu.dcache.WriteReq_mshr_misses::total        16377                       # number of WriteReq MSHR misses
system.cpu.dcache.WriteReq_mshr_miss_latency::.switch_cpus.data    448945598                       # number of WriteReq MSHR miss cycles
system.cpu.dcache.WriteReq_mshr_miss_latency::total    448945598                       # number of WriteReq MSHR miss cycles
system.cpu.dcache.WriteReq_mshr_miss_rate::.switch_cpus.data     0.105922                       # mshr miss rate for WriteReq accesses
system.cpu.dcache.WriteReq_mshr_miss_rate::total     0.105920                       # mshr miss rate for WriteReq accesses
system.cpu.dcache.WriteReq_avg_mshr_miss_latency::.switch_cpus.data 27413.176894                       # average WriteReq mshr miss latency
system.cpu.dcache.WriteReq_avg_mshr_miss_latency::total 27413.176894                       # average WriteReq mshr miss latency
system.cpu.dcache.power_state.pwrStateResidencyTicks::UNDEFINED 246332414000                       # Cumulative time (in ticks) in various power states
system.cpu.dcache.tags.tagsinuse           252.210173                       # Cycle average of tags in use
system.cpu.dcache.tags.total_refs               80472                       # Total number of references to valid blocks.
system.cpu.dcache.tags.sampled_refs             32220                       # Sample count of references to valid blocks.
system.cpu.dcache.tags.avg_refs              2.497579                       # Average number of references to valid blocks.
system.cpu.dcache.tags.warmup_cycle      245999123600                       # Cycle when the warmup percentage was hit.
system.cpu.dcache.tags.occ_blocks::.cpu.data     3.036036                       # Average occupied blocks per requestor
system.cpu.dcache.tags.occ_blocks::.switch_cpus.data   249.174137                       # Average occupied blocks per requestor
system.cpu.dcache.tags.occ_percent::.cpu.data     0.011860                       # Average percentage of cache occupancy
system.cpu.dcache.tags.occ_percent::.switch_cpus.data     0.973336                       # Average percentage of cache occupancy
system.cpu.dcache.tags.occ_percent::total     0.985196                       # Average percentage of cache occupancy
system.cpu.dcache.tags.occ_task_id_blocks::1024          256                       # Occupied blocks per task id
system.cpu.dcache.tags.age_task_id_blocks_1024::0          252                       # Occupied blocks per task id
system.cpu.dcache.tags.age_task_id_blocks_1024::1            1                       # Occupied blocks per task id
system.cpu.dcache.tags.age_task_id_blocks_1024::2            3                       # Occupied blocks per task id
system.cpu.dcache.tags.occ_task_id_percent::1024            1                       # Percentage of cache occupancy per task id
system.cpu.dcache.tags.tag_accesses           2395188                       # Number of tag accesses
system.cpu.dcache.tags.data_accesses          2395188                       # Number of data accesses
system.cpu.dcache.tags.power_state.pwrStateResidencyTicks::UNDEFINED 246332414000                       # Cumulative time (in ticks) in various power states
system.cpu.dtb.instHits                             0                       # ITB inst hits
system.cpu.dtb.instMisses                           0                       # ITB inst misses
system.cpu.dtb.readHits                             0                       # DTB read hits
system.cpu.dtb.readMisses                           0                       # DTB read misses
system.cpu.dtb.writeHits                            0                       # DTB write hits
system.cpu.dtb.writeMisses                          0                       # DTB write misses
system.cpu.dtb.inserts                              0                       # Number of times an entry is inserted into the TLB
system.cpu.dtb.flushTlb                             2                       # Number of times complete TLB was flushed
system.cpu.dtb.flushTlbMva                          0                       # Number of times TLB was flushed by MVA
system.cpu.dtb.flushTlbMvaAsid                      0                       # Number of times TLB was flushed by MVA & ASID
system.cpu.dtb.flushTlbAsid                         0                       # Number of times TLB was flushed by ASID
system.cpu.dtb.flushedEntries                       0                       # Number of entries that have been flushed from TLB
system.cpu.dtb.alignFaults                          0                       # Number of TLB faults due to alignment restrictions
system.cpu.dtb.prefetchFaults                       0                       # Number of TLB faults due to prefetch
system.cpu.dtb.domainFaults                         0                       # Number of TLB faults due to domain restrictions
system.cpu.dtb.permsFaults                          0                       # Number of TLB faults due to permissions restrictions
system.cpu.dtb.readAccesses                         0                       # DTB read accesses
system.cpu.dtb.writeAccesses                        0                       # DTB write accesses
system.cpu.dtb.instAccesses                         0                       # ITB inst accesses
system.cpu.dtb.hits                                 0                       # Total TLB (inst and data) hits
system.cpu.dtb.misses                               0                       # Total TLB (inst and data) misses
system.cpu.dtb.accesses                             0                       # Total TLB (inst and data) accesses
system.cpu.dtb.stage2_mmu.stage2_tlb.instHits            0                       # ITB inst hits
system.cpu.dtb.stage2_mmu.stage2_tlb.instMisses            0                       # ITB inst misses
system.cpu.dtb.stage2_mmu.stage2_tlb.readHits            0                       # DTB read hits
system.cpu.dtb.stage2_mmu.stage2_tlb.readMisses            0                       # DTB read misses
system.cpu.dtb.stage2_mmu.stage2_tlb.writeHits            0                       # DTB write hits
system.cpu.dtb.stage2_mmu.stage2_tlb.writeMisses            0                       # DTB write misses
system.cpu.dtb.stage2_mmu.stage2_tlb.inserts            0                       # Number of times an entry is inserted into the TLB
system.cpu.dtb.stage2_mmu.stage2_tlb.flushTlb            0                       # Number of times complete TLB was flushed
system.cpu.dtb.stage2_mmu.stage2_tlb.flushTlbMva            0                       # Number of times TLB was flushed by MVA
system.cpu.dtb.stage2_mmu.stage2_tlb.flushTlbMvaAsid            0                       # Number of times TLB was flushed by MVA & ASID
system.cpu.dtb.stage2_mmu.stage2_tlb.flushTlbAsid            0                       # Number of times TLB was flushed by ASID
system.cpu.dtb.stage2_mmu.stage2_tlb.flushedEntries            0                       # Number of entries that have been flushed from TLB
system.cpu.dtb.stage2_mmu.stage2_tlb.alignFaults            0                       # Number of TLB faults due to alignment restrictions
system.cpu.dtb.stage2_mmu.stage2_tlb.prefetchFaults            0                       # Number of TLB faults due to prefetch
system.cpu.dtb.stage2_mmu.stage2_tlb.domainFaults            0                       # Number of TLB faults due to domain restrictions
system.cpu.dtb.stage2_mmu.stage2_tlb.permsFaults            0                       # Number of TLB faults due to permissions restrictions
system.cpu.dtb.stage2_mmu.stage2_tlb.readAccesses            0                       # DTB read accesses
system.cpu.dtb.stage2_mmu.stage2_tlb.writeAccesses            0                       # DTB write accesses
system.cpu.dtb.stage2_mmu.stage2_tlb.instAccesses            0                       # ITB inst accesses
system.cpu.dtb.stage2_mmu.stage2_tlb.hits            0                       # Total TLB (inst and data) hits
system.cpu.dtb.stage2_mmu.stage2_tlb.misses            0                       # Total TLB (inst and data) misses
system.cpu.dtb.stage2_mmu.stage2_tlb.accesses            0                       # Total TLB (inst and data) accesses
system.cpu.dtb.stage2_mmu.stage2_tlb.walker.walks            0                       # Table walker walks requested
system.cpu.dtb.stage2_mmu.stage2_tlb.walker.requestOrigin_Requested::Data            0                       # Table walker requests started/completed, data/inst
system.cpu.dtb.stage2_mmu.stage2_tlb.walker.requestOrigin_Requested::Inst            0                       # Table walker requests started/completed, data/inst
system.cpu.dtb.stage2_mmu.stage2_tlb.walker.requestOrigin_Requested::total            0                       # Table walker requests started/completed, data/inst
system.cpu.dtb.stage2_mmu.stage2_tlb.walker.requestOrigin_Completed::Data            0                       # Table walker requests started/completed, data/inst
system.cpu.dtb.stage2_mmu.stage2_tlb.walker.requestOrigin_Completed::Inst            0                       # Table walker requests started/completed, data/inst
system.cpu.dtb.stage2_mmu.stage2_tlb.walker.requestOrigin_Completed::total            0                       # Table walker requests started/completed, data/inst
system.cpu.dtb.stage2_mmu.stage2_tlb.walker.requestOrigin::total            0                       # Table walker requests started/completed, data/inst
system.cpu.dtb.stage2_mmu.stage2_tlb.walker.power_state.pwrStateResidencyTicks::UNDEFINED 246332414000                       # Cumulative time (in ticks) in various power states
system.cpu.dtb.walker.walks                         0                       # Table walker walks requested
system.cpu.dtb.walker.requestOrigin_Requested::Data            0                       # Table walker requests started/completed, data/inst
system.cpu.dtb.walker.requestOrigin_Requested::Inst            0                       # Table walker requests started/completed, data/inst
system.cpu.dtb.walker.requestOrigin_Requested::total            0                       # Table walker requests started/completed, data/inst
system.cpu.dtb.walker.requestOrigin_Completed::Data            0                       # Table walker requests started/completed, data/inst
system.cpu.dtb.walker.requestOrigin_Completed::Inst            0                       # Table walker requests started/completed, data/inst
system.cpu.dtb.walker.requestOrigin_Completed::total            0                       # Table walker requests started/completed, data/inst
system.cpu.dtb.walker.requestOrigin::total            0                       # Table walker requests started/completed, data/inst
system.cpu.dtb.walker.power_state.pwrStateResidencyTicks::UNDEFINED 246332414000                       # Cumulative time (in ticks) in various power states
system.cpu.dtb_walker_cache.blocked_cycles::no_mshrs            0                       # number of cycles access was blocked
system.cpu.dtb_walker_cache.blocked_cycles::no_targets            0                       # number of cycles access was blocked
system.cpu.dtb_walker_cache.blocked::no_mshrs            0                       # number of cycles access was blocked
system.cpu.dtb_walker_cache.blocked::no_targets            0                       # number of cycles access was blocked
system.cpu.dtb_walker_cache.avg_blocked_cycles::no_mshrs          nan                       # average number of cycles each access was blocked
system.cpu.dtb_walker_cache.avg_blocked_cycles::no_targets          nan                       # average number of cycles each access was blocked
system.cpu.dtb_walker_cache.replacements            0                       # number of replacements
system.cpu.dtb_walker_cache.power_state.pwrStateResidencyTicks::UNDEFINED 246332414000                       # Cumulative time (in ticks) in various power states
system.cpu.dtb_walker_cache.tags.tagsinuse            0                       # Cycle average of tags in use
system.cpu.dtb_walker_cache.tags.total_refs            0                       # Total number of references to valid blocks.
system.cpu.dtb_walker_cache.tags.sampled_refs            0                       # Sample count of references to valid blocks.
system.cpu.dtb_walker_cache.tags.avg_refs          nan                       # Average number of references to valid blocks.
system.cpu.dtb_walker_cache.tags.warmup_cycle            0                       # Cycle when the warmup percentage was hit.
system.cpu.dtb_walker_cache.tags.tag_accesses            0                       # Number of tag accesses
system.cpu.dtb_walker_cache.tags.data_accesses            0                       # Number of data accesses
system.cpu.dtb_walker_cache.tags.power_state.pwrStateResidencyTicks::UNDEFINED 246332414000                       # Cumulative time (in ticks) in various power states
system.cpu.icache.demand_hits::.cpu.inst           21                       # number of demand (read+write) hits
system.cpu.icache.demand_hits::.switch_cpus.inst       145074                       # number of demand (read+write) hits
system.cpu.icache.demand_hits::total           145095                       # number of demand (read+write) hits
system.cpu.icache.overall_hits::.cpu.inst           21                       # number of overall hits
system.cpu.icache.overall_hits::.switch_cpus.inst       145074                       # number of overall hits
system.cpu.icache.overall_hits::total          145095                       # number of overall hits
system.cpu.icache.demand_misses::.cpu.inst            4                       # number of demand (read+write) misses
system.cpu.icache.demand_misses::.switch_cpus.inst            4                       # number of demand (read+write) misses
system.cpu.icache.demand_misses::total              8                       # number of demand (read+write) misses
system.cpu.icache.overall_misses::.cpu.inst            4                       # number of overall misses
system.cpu.icache.overall_misses::.switch_cpus.inst            4                       # number of overall misses
system.cpu.icache.overall_misses::total             8                       # number of overall misses
system.cpu.icache.demand_miss_latency::.switch_cpus.inst       212000                       # number of demand (read+write) miss cycles
system.cpu.icache.demand_miss_latency::total       212000                       # number of demand (read+write) miss cycles
system.cpu.icache.overall_miss_latency::.switch_cpus.inst       212000                       # number of overall miss cycles
system.cpu.icache.overall_miss_latency::total       212000                       # number of overall miss cycles
system.cpu.icache.demand_accesses::.cpu.inst           25                       # number of demand (read+write) accesses
system.cpu.icache.demand_accesses::.switch_cpus.inst       145078                       # number of demand (read+write) accesses
system.cpu.icache.demand_accesses::total       145103                       # number of demand (read+write) accesses
system.cpu.icache.overall_accesses::.cpu.inst           25                       # number of overall (read+write) accesses
system.cpu.icache.overall_accesses::.switch_cpus.inst       145078                       # number of overall (read+write) accesses
system.cpu.icache.overall_accesses::total       145103                       # number of overall (read+write) accesses
system.cpu.icache.demand_miss_rate::.cpu.inst     0.160000                       # miss rate for demand accesses
system.cpu.icache.demand_miss_rate::.switch_cpus.inst     0.000028                       # miss rate for demand accesses
system.cpu.icache.demand_miss_rate::total     0.000055                       # miss rate for demand accesses
system.cpu.icache.overall_miss_rate::.cpu.inst     0.160000                       # miss rate for overall accesses
system.cpu.icache.overall_miss_rate::.switch_cpus.inst     0.000028                       # miss rate for overall accesses
system.cpu.icache.overall_miss_rate::total     0.000055                       # miss rate for overall accesses
system.cpu.icache.demand_avg_miss_latency::.switch_cpus.inst        53000                       # average overall miss latency
system.cpu.icache.demand_avg_miss_latency::total        26500                       # average overall miss latency
system.cpu.icache.overall_avg_miss_latency::.switch_cpus.inst        53000                       # average overall miss latency
system.cpu.icache.overall_avg_miss_latency::total        26500                       # average overall miss latency
system.cpu.icache.blocked_cycles::no_mshrs            0                       # number of cycles access was blocked
system.cpu.icache.blocked_cycles::no_targets            0                       # number of cycles access was blocked
system.cpu.icache.blocked::no_mshrs                 0                       # number of cycles access was blocked
system.cpu.icache.blocked::no_targets               0                       # number of cycles access was blocked
system.cpu.icache.avg_blocked_cycles::no_mshrs          nan                       # average number of cycles each access was blocked
system.cpu.icache.avg_blocked_cycles::no_targets          nan                       # average number of cycles each access was blocked
system.cpu.icache.demand_mshr_hits::.switch_cpus.inst            3                       # number of demand (read+write) MSHR hits
system.cpu.icache.demand_mshr_hits::total            3                       # number of demand (read+write) MSHR hits
system.cpu.icache.overall_mshr_hits::.switch_cpus.inst            3                       # number of overall MSHR hits
system.cpu.icache.overall_mshr_hits::total            3                       # number of overall MSHR hits
system.cpu.icache.demand_mshr_misses::.switch_cpus.inst            1                       # number of demand (read+write) MSHR misses
system.cpu.icache.demand_mshr_misses::total            1                       # number of demand (read+write) MSHR misses
system.cpu.icache.overall_mshr_misses::.switch_cpus.inst            1                       # number of overall MSHR misses
system.cpu.icache.overall_mshr_misses::total            1                       # number of overall MSHR misses
system.cpu.icache.demand_mshr_miss_latency::.switch_cpus.inst        75200                       # number of demand (read+write) MSHR miss cycles
system.cpu.icache.demand_mshr_miss_latency::total        75200                       # number of demand (read+write) MSHR miss cycles
system.cpu.icache.overall_mshr_miss_latency::.switch_cpus.inst        75200                       # number of overall MSHR miss cycles
system.cpu.icache.overall_mshr_miss_latency::total        75200                       # number of overall MSHR miss cycles
system.cpu.icache.demand_mshr_miss_rate::.switch_cpus.inst     0.000007                       # mshr miss rate for demand accesses
system.cpu.icache.demand_mshr_miss_rate::total     0.000007                       # mshr miss rate for demand accesses
system.cpu.icache.overall_mshr_miss_rate::.switch_cpus.inst     0.000007                       # mshr miss rate for overall accesses
system.cpu.icache.overall_mshr_miss_rate::total     0.000007                       # mshr miss rate for overall accesses
system.cpu.icache.demand_avg_mshr_miss_latency::.switch_cpus.inst        75200                       # average overall mshr miss latency
system.cpu.icache.demand_avg_mshr_miss_latency::total        75200                       # average overall mshr miss latency
system.cpu.icache.overall_avg_mshr_miss_latency::.switch_cpus.inst        75200                       # average overall mshr miss latency
system.cpu.icache.overall_avg_mshr_miss_latency::total        75200                       # average overall mshr miss latency
system.cpu.icache.replacements                      0                       # number of replacements
system.cpu.icache.ReadReq_hits::.cpu.inst           21                       # number of ReadReq hits
system.cpu.icache.ReadReq_hits::.switch_cpus.inst       145074                       # number of ReadReq hits
system.cpu.icache.ReadReq_hits::total          145095                       # number of ReadReq hits
system.cpu.icache.ReadReq_misses::.cpu.inst            4                       # number of ReadReq misses
system.cpu.icache.ReadReq_misses::.switch_cpus.inst            4                       # number of ReadReq misses
system.cpu.icache.ReadReq_misses::total             8                       # number of ReadReq misses
system.cpu.icache.ReadReq_miss_latency::.switch_cpus.inst       212000                       # number of ReadReq miss cycles
system.cpu.icache.ReadReq_miss_latency::total       212000                       # number of ReadReq miss cycles
system.cpu.icache.ReadReq_accesses::.cpu.inst           25                       # number of ReadReq accesses(hits+misses)
system.cpu.icache.ReadReq_accesses::.switch_cpus.inst       145078                       # number of ReadReq accesses(hits+misses)
system.cpu.icache.ReadReq_accesses::total       145103                       # number of ReadReq accesses(hits+misses)
system.cpu.icache.ReadReq_miss_rate::.cpu.inst     0.160000                       # miss rate for ReadReq accesses
system.cpu.icache.ReadReq_miss_rate::.switch_cpus.inst     0.000028                       # miss rate for ReadReq accesses
system.cpu.icache.ReadReq_miss_rate::total     0.000055                       # miss rate for ReadReq accesses
system.cpu.icache.ReadReq_avg_miss_latency::.switch_cpus.inst        53000                       # average ReadReq miss latency
system.cpu.icache.ReadReq_avg_miss_latency::total        26500                       # average ReadReq miss latency
system.cpu.icache.ReadReq_mshr_hits::.switch_cpus.inst            3                       # number of ReadReq MSHR hits
system.cpu.icache.ReadReq_mshr_hits::total            3                       # number of ReadReq MSHR hits
system.cpu.icache.ReadReq_mshr_misses::.switch_cpus.inst            1                       # number of ReadReq MSHR misses
system.cpu.icache.ReadReq_mshr_misses::total            1                       # number of ReadReq MSHR misses
system.cpu.icache.ReadReq_mshr_miss_latency::.switch_cpus.inst        75200                       # number of ReadReq MSHR miss cycles
system.cpu.icache.ReadReq_mshr_miss_latency::total        75200                       # number of ReadReq MSHR miss cycles
system.cpu.icache.ReadReq_mshr_miss_rate::.switch_cpus.inst     0.000007                       # mshr miss rate for ReadReq accesses
system.cpu.icache.ReadReq_mshr_miss_rate::total     0.000007                       # mshr miss rate for ReadReq accesses
system.cpu.icache.ReadReq_avg_mshr_miss_latency::.switch_cpus.inst        75200                       # average ReadReq mshr miss latency
system.cpu.icache.ReadReq_avg_mshr_miss_latency::total        75200                       # average ReadReq mshr miss latency
system.cpu.icache.power_state.pwrStateResidencyTicks::UNDEFINED 246332414000                       # Cumulative time (in ticks) in various power states
system.cpu.icache.tags.tagsinuse             4.999434                       # Cycle average of tags in use
system.cpu.icache.tags.total_refs                   0                       # Total number of references to valid blocks.
system.cpu.icache.tags.sampled_refs                 0                       # Sample count of references to valid blocks.
system.cpu.icache.tags.avg_refs                   nan                       # Average number of references to valid blocks.
system.cpu.icache.tags.warmup_cycle      245999123600                       # Cycle when the warmup percentage was hit.
system.cpu.icache.tags.occ_blocks::.cpu.inst     3.999929                       # Average occupied blocks per requestor
system.cpu.icache.tags.occ_blocks::.switch_cpus.inst     0.999504                       # Average occupied blocks per requestor
system.cpu.icache.tags.occ_percent::.cpu.inst     0.007812                       # Average percentage of cache occupancy
system.cpu.icache.tags.occ_percent::.switch_cpus.inst     0.001952                       # Average percentage of cache occupancy
system.cpu.icache.tags.occ_percent::total     0.009765                       # Average percentage of cache occupancy
system.cpu.icache.tags.occ_task_id_blocks::1024            5                       # Occupied blocks per task id
system.cpu.icache.tags.age_task_id_blocks_1024::2            5                       # Occupied blocks per task id
system.cpu.icache.tags.occ_task_id_percent::1024     0.009766                       # Percentage of cache occupancy per task id
system.cpu.icache.tags.tag_accesses           1160829                       # Number of tag accesses
system.cpu.icache.tags.data_accesses          1160829                       # Number of data accesses
system.cpu.icache.tags.power_state.pwrStateResidencyTicks::UNDEFINED 246332414000                       # Cumulative time (in ticks) in various power states
system.cpu.itb.instHits                             0                       # ITB inst hits
system.cpu.itb.instMisses                           0                       # ITB inst misses
system.cpu.itb.readHits                             0                       # DTB read hits
system.cpu.itb.readMisses                           0                       # DTB read misses
system.cpu.itb.writeHits                            0                       # DTB write hits
system.cpu.itb.writeMisses                          0                       # DTB write misses
system.cpu.itb.inserts                              0                       # Number of times an entry is inserted into the TLB
system.cpu.itb.flushTlb                             2                       # Number of times complete TLB was flushed
system.cpu.itb.flushTlbMva                          0                       # Number of times TLB was flushed by MVA
system.cpu.itb.flushTlbMvaAsid                      0                       # Number of times TLB was flushed by MVA & ASID
system.cpu.itb.flushTlbAsid                         0                       # Number of times TLB was flushed by ASID
system.cpu.itb.flushedEntries                       0                       # Number of entries that have been flushed from TLB
system.cpu.itb.alignFaults                          0                       # Number of TLB faults due to alignment restrictions
system.cpu.itb.prefetchFaults                       0                       # Number of TLB faults due to prefetch
system.cpu.itb.domainFaults                         0                       # Number of TLB faults due to domain restrictions
system.cpu.itb.permsFaults                          0                       # Number of TLB faults due to permissions restrictions
system.cpu.itb.readAccesses                         0                       # DTB read accesses
system.cpu.itb.writeAccesses                        0                       # DTB write accesses
system.cpu.itb.instAccesses                         0                       # ITB inst accesses
system.cpu.itb.hits                                 0                       # Total TLB (inst and data) hits
system.cpu.itb.misses                               0                       # Total TLB (inst and data) misses
system.cpu.itb.accesses                             0                       # Total TLB (inst and data) accesses
system.cpu.itb.stage2_mmu.stage2_tlb.instHits            0                       # ITB inst hits
system.cpu.itb.stage2_mmu.stage2_tlb.instMisses            0                       # ITB inst misses
system.cpu.itb.stage2_mmu.stage2_tlb.readHits            0                       # DTB read hits
system.cpu.itb.stage2_mmu.stage2_tlb.readMisses            0                       # DTB read misses
system.cpu.itb.stage2_mmu.stage2_tlb.writeHits            0                       # DTB write hits
system.cpu.itb.stage2_mmu.stage2_tlb.writeMisses            0                       # DTB write misses
system.cpu.itb.stage2_mmu.stage2_tlb.inserts            0                       # Number of times an entry is inserted into the TLB
system.cpu.itb.stage2_mmu.stage2_tlb.flushTlb            0                       # Number of times complete TLB was flushed
system.cpu.itb.stage2_mmu.stage2_tlb.flushTlbMva            0                       # Number of times TLB was flushed by MVA
system.cpu.itb.stage2_mmu.stage2_tlb.flushTlbMvaAsid            0                       # Number of times TLB was flushed by MVA & ASID
system.cpu.itb.stage2_mmu.stage2_tlb.flushTlbAsid            0                       # Number of times TLB was flushed by ASID
system.cpu.itb.stage2_mmu.stage2_tlb.flushedEntries            0                       # Number of entries that have been flushed from TLB
system.cpu.itb.stage2_mmu.stage2_tlb.alignFaults            0                       # Number of TLB faults due to alignment restrictions
system.cpu.itb.stage2_mmu.stage2_tlb.prefetchFaults            0                       # Number of TLB faults due to prefetch
system.cpu.itb.stage2_mmu.stage2_tlb.domainFaults            0                       # Number of TLB faults due to domain restrictions
system.cpu.itb.stage2_mmu.stage2_tlb.permsFaults            0                       # Number of TLB faults due to permissions restrictions
system.cpu.itb.stage2_mmu.stage2_tlb.readAccesses            0                       # DTB read accesses
system.cpu.itb.stage2_mmu.stage2_tlb.writeAccesses            0                       # DTB write accesses
system.cpu.itb.stage2_mmu.stage2_tlb.instAccesses            0                       # ITB inst accesses
system.cpu.itb.stage2_mmu.stage2_tlb.hits            0                       # Total TLB (inst and data) hits
system.cpu.itb.stage2_mmu.stage2_tlb.misses            0                       # Total TLB (inst and data) misses
system.cpu.itb.stage2_mmu.stage2_tlb.accesses            0                       # Total TLB (inst and data) accesses
system.cpu.itb.stage2_mmu.stage2_tlb.walker.walks            0                       # Table walker walks requested
system.cpu.itb.stage2_mmu.stage2_tlb.walker.requestOrigin_Requested::Data            0                       # Table walker requests started/completed, data/inst
system.cpu.itb.stage2_mmu.stage2_tlb.walker.requestOrigin_Requested::Inst            0                       # Table walker requests started/completed, data/inst
system.cpu.itb.stage2_mmu.stage2_tlb.walker.requestOrigin_Requested::total            0                       # Table walker requests started/completed, data/inst
system.cpu.itb.stage2_mmu.stage2_tlb.walker.requestOrigin_Completed::Data            0                       # Table walker requests started/completed, data/inst
system.cpu.itb.stage2_mmu.stage2_tlb.walker.requestOrigin_Completed::Inst            0                       # Table walker requests started/completed, data/inst
system.cpu.itb.stage2_mmu.stage2_tlb.walker.requestOrigin_Completed::total            0                       # Table walker requests started/completed, data/inst
system.cpu.itb.stage2_mmu.stage2_tlb.walker.requestOrigin::total            0                       # Table walker requests started/completed, data/inst
system.cpu.itb.stage2_mmu.stage2_tlb.walker.power_state.pwrStateResidencyTicks::UNDEFINED 246332414000                       # Cumulative time (in ticks) in various power states
system.cpu.itb.walker.walks                         0                       # Table walker walks requested
system.cpu.itb.walker.requestOrigin_Requested::Data            0                       # Table walker requests started/completed, data/inst
system.cpu.itb.walker.requestOrigin_Requested::Inst            0                       # Table walker requests started/completed, data/inst
system.cpu.itb.walker.requestOrigin_Requested::total            0                       # Table walker requests started/completed, data/inst
system.cpu.itb.walker.requestOrigin_Completed::Data            0                       # Table walker requests started/completed, data/inst
system.cpu.itb.walker.requestOrigin_Completed::Inst            0                       # Table walker requests started/completed, data/inst
[...]
system.switch_cpus.fetch.cycles               8818604                       # Number of cycles fetch has run and was not squashing or blocked
system.switch_cpus.fetch.squashCycles          193834                       # Number of cycles fetch has spent squashing
system.switch_cpus.fetch.miscStallCycles         1307                       # Number of cycles fetch has spent waiting on interrupts,or bad addresses, or out of MSHRs
system.switch_cpus.fetch.pendingTrapStallCycles         2906                       # Number of stall cycles due to pending traps
system.switch_cpus.fetch.icacheWaitRetryStallCycles          200                       # Number of stall cycles due to full MSHR
system.switch_cpus.fetch.cacheLines           3122372                       # Number of cache lines fetched
system.switch_cpus.fetch.icacheSquashes            95                       # Number of outstanding Icache misses that were squashed
system.switch_cpus.fetch.nisnDist::samples      9005702                       # Number of instructions fetched each cycle (Total)
system.switch_cpus.fetch.nisnDist::mean      2.460322                       # Number of instructions fetched each cycle (Total)
system.switch_cpus.fetch.nisnDist::stdev     2.977026                       # Number of instructions fetched each cycle (Total)
system.switch_cpus.fetch.nisnDist::underflows            0      0.00%      0.00% # Number of instructions fetched each cycle (Total)
system.switch_cpus.fetch.nisnDist::0          4376633     48.60%     48.60% # Number of instructions fetched each cycle (Total)
system.switch_cpus.fetch.nisnDist::1           317528      3.53%     52.12% # Number of instructions fetched each cycle (Total)
system.switch_cpus.fetch.nisnDist::2           946583     10.51%     62.64% # Number of instructions fetched each cycle (Total)
system.switch_cpus.fetch.nisnDist::3           499196      5.54%     68.18% # Number of instructions fetched each cycle (Total)
system.switch_cpus.fetch.nisnDist::4           442645      4.92%     73.09% # Number of instructions fetched each cycle (Total)
system.switch_cpus.fetch.nisnDist::5           568083      6.31%     79.40% # Number of instructions fetched each cycle (Total)
system.switch_cpus.fetch.nisnDist::6           381982      4.24%     83.64% # Number of instructions fetched each cycle (Total)
system.switch_cpus.fetch.nisnDist::7           238654      2.65%     86.29% # Number of instructions fetched each cycle (Total)
system.switch_cpus.fetch.nisnDist::8          1234398     13.71%    100.00% # Number of instructions fetched each cycle (Total)
system.switch_cpus.fetch.nisnDist::overflows            0      0.00%    100.00% # Number of instructions fetched each cycle (Total)
system.switch_cpus.fetch.nisnDist::min_value            0                       # Number of instructions fetched each cycle (Total)
system.switch_cpus.fetch.nisnDist::max_value            8                       # Number of instructions fetched each cycle (Total)
system.switch_cpus.fetch.nisnDist::total      9005702                       # Number of instructions fetched each cycle (Total)
system.switch_cpus.fetch.branchRate          0.413608                       # Number of branch fetches per cycle
system.switch_cpus.fetch.rate                2.243757                       # Number of inst fetches per cycle
system.switch_cpus.itb.instHits                     0                       # ITB inst hits
system.switch_cpus.itb.instMisses                   0                       # ITB inst misses
system.switch_cpus.itb.readHits                     0                       # DTB read hits
system.switch_cpus.itb.readMisses                   0                       # DTB read misses
system.switch_cpus.itb.writeHits                    0                       # DTB write hits
system.switch_cpus.itb.writeMisses                  0                       # DTB write misses
system.switch_cpus.itb.inserts                      0                       # Number of times an entry is inserted into the TLB
system.switch_cpus.itb.flushTlb                     0                       # Number of times complete TLB was flushed
system.switch_cpus.itb.flushTlbMva                  0                       # Number of times TLB was flushed by MVA
system.switch_cpus.itb.flushTlbMvaAsid              0                       # Number of times TLB was flushed by MVA & ASID
system.switch_cpus.itb.flushTlbAsid                 0                       # Number of times TLB was flushed by ASID
system.switch_cpus.itb.flushedEntries               0                       # Number of entries that have been flushed from TLB
system.switch_cpus.itb.alignFaults                  0                       # Number of TLB faults due to alignment restrictions
system.switch_cpus.itb.prefetchFaults               0                       # Number of TLB faults due to prefetch
system.switch_cpus.itb.domainFaults                 0                       # Number of TLB faults due to domain restrictions
system.switch_cpus.itb.permsFaults                  0                       # Number of TLB faults due to permissions restrictions
system.switch_cpus.itb.readAccesses                 0                       # DTB read accesses
system.switch_cpus.itb.writeAccesses                0                       # DTB write accesses
system.switch_cpus.itb.instAccesses                 0                       # ITB inst accesses
system.switch_cpus.itb.hits                         0                       # Total TLB (inst and data) hits
system.switch_cpus.itb.misses                       0                       # Total TLB (inst and data) misses
system.switch_cpus.itb.accesses                     0                       # Total TLB (inst and data) accesses
system.switch_cpus.itb.stage2_mmu.stage2_tlb.instHits            0                       # ITB inst hits
system.switch_cpus.itb.stage2_mmu.stage2_tlb.instMisses            0                       # ITB inst misses
system.switch_cpus.itb.stage2_mmu.stage2_tlb.readHits            0                       # DTB read hits
system.switch_cpus.itb.stage2_mmu.stage2_tlb.readMisses            0                       # DTB read misses
system.switch_cpus.itb.stage2_mmu.stage2_tlb.writeHits            0                       # DTB write hits
system.switch_cpus.itb.stage2_mmu.stage2_tlb.writeMisses            0                       # DTB write misses
system.switch_cpus.itb.stage2_mmu.stage2_tlb.inserts            0                       # Number of times an entry is inserted into the TLB
system.switch_cpus.itb.stage2_mmu.stage2_tlb.flushTlb            0                       # Number of times complete TLB was flushed
system.switch_cpus.itb.stage2_mmu.stage2_tlb.flushTlbMva            0                       # Number of times TLB was flushed by MVA
system.switch_cpus.itb.stage2_mmu.stage2_tlb.flushTlbMvaAsid            0                       # Number of times TLB was flushed by MVA & ASID
system.switch_cpus.itb.stage2_mmu.stage2_tlb.flushTlbAsid            0                       # Number of times TLB was flushed by ASID
system.switch_cpus.itb.stage2_mmu.stage2_tlb.flushedEntries            0                       # Number of entries that have been flushed from TLB
system.switch_cpus.itb.stage2_mmu.stage2_tlb.alignFaults            0                       # Number of TLB faults due to alignment restrictions
system.switch_cpus.itb.stage2_mmu.stage2_tlb.prefetchFaults            0                       # Number of TLB faults due to prefetch
system.switch_cpus.itb.stage2_mmu.stage2_tlb.domainFaults            0                       # Number of TLB faults due to domain restrictions
system.switch_cpus.itb.stage2_mmu.stage2_tlb.permsFaults            0                       # Number of TLB faults due to permissions restrictions
system.switch_cpus.itb.stage2_mmu.stage2_tlb.readAccesses            0                       # DTB read accesses
system.switch_cpus.itb.stage2_mmu.stage2_tlb.writeAccesses            0                       # DTB write accesses
system.switch_cpus.itb.stage2_mmu.stage2_tlb.instAccesses            0                       # ITB inst accesses
system.switch_cpus.itb.stage2_mmu.stage2_tlb.hits            0                       # Total TLB (inst and data) hits
system.switch_cpus.itb.stage2_mmu.stage2_tlb.misses            0                       # Total TLB (inst and data) misses
system.switch_cpus.itb.stage2_mmu.stage2_tlb.accesses            0                       # Total TLB (inst and data) accesses
system.switch_cpus.itb.stage2_mmu.stage2_tlb.walker.walks            0                       # Table walker walks requested
system.switch_cpus.itb.stage2_mmu.stage2_tlb.walker.requestOrigin_Requested::Data            0                       # Table walker requests started/completed, data/inst
system.switch_cpus.itb.stage2_mmu.stage2_tlb.walker.requestOrigin_Requested::Inst            0                       # Table walker requests started/completed, data/inst
system.switch_cpus.itb.stage2_mmu.stage2_tlb.walker.requestOrigin_Requested::total            0                       # Table walker requests started/completed, data/inst
system.switch_cpus.itb.stage2_mmu.stage2_tlb.walker.requestOrigin_Completed::Data            0                       # Table walker requests started/completed, data/inst
system.switch_cpus.itb.stage2_mmu.stage2_tlb.walker.requestOrigin_Completed::Inst            0                       # Table walker requests started/completed, data/inst
system.switch_cpus.itb.stage2_mmu.stage2_tlb.walker.requestOrigin_Completed::total            0                       # Table walker requests started/completed, data/inst
system.switch_cpus.itb.stage2_mmu.stage2_tlb.walker.requestOrigin::total            0                       # Table walker requests started/completed, data/inst
system.switch_cpus.itb.stage2_mmu.stage2_tlb.walker.power_state.pwrStateResidencyTicks::UNDEFINED   3606650000                       # Cumulative time (in ticks) in various power states
system.switch_cpus.itb.walker.walks                 0                       # Table walker walks requested
system.switch_cpus.itb.walker.requestOrigin_Requested::Data            0                       # Table walker requests started/completed, data/inst
system.switch_cpus.itb.walker.requestOrigin_Requested::Inst            0                       # Table walker requests started/completed, data/inst
system.switch_cpus.itb.walker.requestOrigin_Requested::total            0                       # Table walker requests started/completed, data/inst
system.switch_cpus.itb.walker.requestOrigin_Completed::Data            0                       # Table walker requests started/completed, data/inst
system.switch_cpus.itb.walker.requestOrigin_Completed::Inst            0                       # Table walker requests started/completed, data/inst
system.switch_cpus.itb.walker.requestOrigin_Completed::total            0                       # Table walker requests started/completed, data/inst
system.switch_cpus.itb.walker.requestOrigin::total            0                       # Table walker requests started/completed, data/inst
system.switch_cpus.itb.walker.power_state.pwrStateResidencyTicks::UNDEFINED   3606650000                       # Cumulative time (in ticks) in various power states
system.switch_cpus.lsq0.forwLoads             1570292                       # Number of loads that had data forwarded from stores
system.switch_cpus.lsq0.squashedLoads         1844990                       # Number of loads squashed
system.switch_cpus.lsq0.ignoredResponses            3                       # Number of memory responses ignored because the instruction is squashed
system.switch_cpus.lsq0.memOrderViolation          625                       # Number of memory ordering violations
system.switch_cpus.lsq0.squashedStores        1155160                       # Number of stores squashed
system.switch_cpus.lsq0.rescheduledLoads         9544                       # Number of loads that were rescheduled
system.switch_cpus.lsq0.blockedByCache            193                       # Number of times an access to memory failed due to the cache being blocked
system.switch_cpus.power_state.pwrStateResidencyTicks::OFF   3606650000                       # Cumulative time (in ticks) in various power states
system.switch_cpus.rename.squashCycles          96836                       # Number of cycles rename is squashing
system.switch_cpus.rename.idleCycles          1079610                       # Number of cycles rename is idle
system.switch_cpus.rename.blockCycles         3229846                       # Number of cycles rename is blocking
system.switch_cpus.rename.serializeStallCycles         6180                       # count of cycles rename stalledfor serializing inst
system.switch_cpus.rename.runCycles           2804595                       # Number of cycles rename is running
system.switch_cpus.rename.unblockCycles       1788635                       # Number of cycles rename is unblocking
system.switch_cpus.rename.renamedInsts       19214622                       # Number of instructions processed by rename
system.switch_cpus.rename.squashedInsts        368024                       # Number of squashed instructions processed by rename
system.switch_cpus.rename.ROBFullEvents           125                       # Number of times rename has blocked due to ROB full
system.switch_cpus.rename.IQFullEvents          94211                       # Number of times rename has blocked due to IQ full
system.switch_cpus.rename.SQFullEvents         626589                       # Number of times rename has blocked due to SQ full
system.switch_cpus.rename.fullRegistersEvents       982975                       # Number of times there has been no free registers
system.switch_cpus.rename.renamedOperands     19138884                       # Number of destination operands rename has renamed
system.switch_cpus.rename.lookups            27088728                       # Number of register rename lookups that rename has made
system.switch_cpus.rename.intLookups         21502661                       # Number of integer rename lookups
system.switch_cpus.rename.committedMaps      10405871                       # Number of HB maps that are committed
system.switch_cpus.rename.undoneMaps          8733048                       # Number of HB maps that are undone due to squashing
system.switch_cpus.rename.serializing             565                       # count of serializing insts renamed
system.switch_cpus.rename.tempSerializing           38                       # count of temporary serializing insts renamed
system.switch_cpus.rename.skidInsts           2925184                       # count of insts added to the skid buffer
system.switch_cpus.rob.reads                 23475585                       # The number of ROB reads
system.switch_cpus.rob.writes                38944364                       # The number of ROB writes
system.switch_cpus.thread_0.numInsts          9999998                       # Number of Instructions committed
system.switch_cpus.thread_0.numOps           10771431                       # Number of Ops committed
system.switch_cpus.thread_0.numMemRefs              0                       # Number of Memory References
system.tol2bus.trans_dist::ReadResp             77139                       # Transaction distribution
system.tol2bus.trans_dist::WritebackDirty       160682                       # Transaction distribution
system.tol2bus.trans_dist::WritebackClean         6085                       # Transaction distribution
system.tol2bus.trans_dist::CleanEvict            5131                       # Transaction distribution
system.tol2bus.trans_dist::HardPFReq             6987                       # Transaction distribution
system.tol2bus.trans_dist::UpgradeReq               1                       # Transaction distribution
system.tol2bus.trans_dist::UpgradeResp              1                       # Transaction distribution
system.tol2bus.trans_dist::ReadExReq            77255                       # Transaction distribution
system.tol2bus.trans_dist::ReadExResp           77255                       # Transaction distribution
system.tol2bus.trans_dist::ReadCleanReq           117                       # Transaction distribution
system.tol2bus.trans_dist::ReadSharedReq        77021                       # Transaction distribution
system.tol2bus.pkt_count_system.cpu.icache.mem_side_port::system.l2.cpu_side_port          233                       # Packet count per connected requestor and responder (bytes)
system.tol2bus.pkt_count_system.cpu.dcache.mem_side_port::system.l2.cpu_side_port       462832                       # Packet count per connected requestor and responder (bytes)
system.tol2bus.pkt_count::total                463065                       # Packet count per connected requestor and responder (bytes)
system.tol2bus.pkt_size_system.cpu.icache.mem_side_port::system.l2.cpu_side_port        14848                       # Cumulative packet size per connected requestor and responder (bytes)
system.tol2bus.pkt_size_system.cpu.dcache.mem_side_port::system.l2.cpu_side_port     39494912                       # Cumulative packet size per connected requestor and responder (bytes)
system.tol2bus.pkt_size::total               39509760                       # Cumulative packet size per connected requestor and responder (bytes)
system.tol2bus.snoops                           24609                       # Total snoops (count)
system.tol2bus.snoopTraffic                   1598848                       # Total snoop traffic (bytes)
system.tol2bus.snoop_fanout::samples           179002                       # Request fanout histogram
system.tol2bus.snoop_fanout::mean            0.000045                       # Request fanout histogram
system.tol2bus.snoop_fanout::stdev           0.006685                       # Request fanout histogram
system.tol2bus.snoop_fanout::underflows             0      0.00%      0.00% # Request fanout histogram
system.tol2bus.snoop_fanout::0                 178994    100.00%    100.00% # Request fanout histogram
system.tol2bus.snoop_fanout::1                      8      0.00%    100.00% # Request fanout histogram
system.tol2bus.snoop_fanout::2                      0      0.00%    100.00% # Request fanout histogram
system.tol2bus.snoop_fanout::3                      0      0.00%    100.00% # Request fanout histogram
system.tol2bus.snoop_fanout::4                      0      0.00%    100.00% # Request fanout histogram
system.tol2bus.snoop_fanout::overflows              0      0.00%    100.00% # Request fanout histogram
system.tol2bus.snoop_fanout::min_value              0                       # Request fanout histogram
system.tol2bus.snoop_fanout::max_value              1                       # Request fanout histogram
system.tol2bus.snoop_fanout::total             179002                       # Request fanout histogram
system.tol2bus.power_state.pwrStateResidencyTicks::UNDEFINED   3606650000                       # Cumulative time (in ticks) in various power states
system.tol2bus.reqLayer0.occupancy          370311600                       # Layer occupancy (ticks)
system.tol2bus.reqLayer0.utilization             10.3                       # Layer utilization (%)
system.tol2bus.respLayer0.occupancy            234000                       # Layer occupancy (ticks)
system.tol2bus.respLayer0.utilization             0.0                       # Layer utilization (%)
system.tol2bus.respLayer1.occupancy         308554400                       # Layer occupancy (ticks)
system.tol2bus.respLayer1.utilization             8.6                       # Layer utilization (%)
system.voltage_domain.voltage                       1                       # Voltage in Volts

---------- End Simulation Statistics   ----------
