
---------- Begin Simulation Statistics ----------
final_tick                               114637505271                       # Number of ticks from beginning of simulation (restored from checkpoints and never reset)
host_inst_rate                                 357679                       # Simulator instruction rate (inst/s)
host_mem_usage                               16965264                       # Number of bytes of host memory used
host_op_rate                                   395312                       # Simulator op (including micro ops) rate (op/s)
host_seconds                                     2.80                       # Real time elapsed on the host
host_tick_rate                               64825744                       # Simulator tick rate (ticks/s)
sim_freq                                 1000000000000                       # Frequency of simulated ticks
sim_insts                                     1000028                       # Number of instructions simulated
sim_ops                                       1105266                       # Number of ops (including micro ops) simulated
sim_seconds                                  0.000181                       # Number of seconds simulated
sim_ticks                                   181249271                       # Number of ticks simulated
system.cpu.Branches                                 2                       # Number of branches fetched
system.cpu.committedInsts                          28                       # Number of instructions committed
system.cpu.committedOps                            30                       # Number of ops (including micro ops) committed
system.cpu.idle_fraction                            0                       # Percentage of idle cycles
system.cpu.not_idle_fraction                        1                       # Percentage of non-idle cycles
system.cpu.numCycles                               30                       # number of cpu cycles simulated
system.cpu.numWorkItemsCompleted                    0                       # number of work items this cpu completed
system.cpu.numWorkItemsStarted                      0                       # number of work items this cpu started
system.cpu.num_busy_cycles                         30                       # Number of busy cycles
system.cpu.num_conditional_control_insts            0                       # number of instructions that are conditional controls
system.cpu.num_fp_alu_accesses                      0                       # Number of float alu accesses
system.cpu.num_fp_insts                             0                       # number of float instructions
system.cpu.num_fp_register_reads                    0                       # number of times the floating registers were read
system.cpu.num_fp_register_writes                   0                       # number of times the floating registers were written
system.cpu.num_func_calls                           2                       # number of times a function call or return occured
system.cpu.num_idle_cycles                          0                       # Number of idle cycles
system.cpu.num_int_alu_accesses                    30                       # Number of integer alu accesses
system.cpu.num_int_insts                           30                       # number of integer instructions
system.cpu.num_int_register_reads                  39                       # number of times the integer registers were read
system.cpu.num_int_register_writes                 25                       # number of times the integer registers were written
system.cpu.num_load_insts                          16                       # Number of load instructions
system.cpu.num_mem_refs                            21                       # number of memory refs
system.cpu.num_store_insts                          5                       # Number of store instructions
system.cpu.num_vec_alu_accesses                     0                       # Number of vector alu accesses
system.cpu.num_vec_insts                            0                       # number of vector instructions
system.cpu.num_vec_register_reads                   0                       # number of times the vector registers were read
system.cpu.num_vec_register_writes                  0                       # number of times the vector registers were written
system.cpu.op_class::No_OpClass                     0      0.00%      0.00% # Class of executed instruction
system.cpu.op_class::IntAlu                         9     30.00%     30.00% # Class of executed instruction
system.cpu.op_class::IntMult                        0      0.00%     30.00% # Class of executed instruction
system.cpu.op_class::IntDiv                         0      0.00%     30.00% # Class of executed instruction
system.cpu.op_class::FloatAdd                       0      0.00%     30.00% # Class of executed instruction
system.cpu.op_class::FloatCmp                       0      0.00%     30.00% # Class of executed instruction
system.cpu.op_class::FloatCvt                       0      0.00%     30.00% # Class of executed instruction
system.cpu.op_class::FloatMult                      0      0.00%     30.00% # Class of executed instruction
system.cpu.op_class::FloatMultAcc                   0      0.00%     30.00% # Class of executed instruction
system.cpu.op_class::FloatDiv                       0      0.00%     30.00% # Class of executed instruction
system.cpu.op_class::FloatMisc                      0      0.00%     30.00% # Class of executed instruction
system.cpu.op_class::FloatSqrt                      0      0.00%     30.00% # Class of executed instruction
system.cpu.op_class::SimdAdd                        0      0.00%     30.00% # Class of executed instruction
system.cpu.op_class::SimdAddAcc                     0      0.00%     30.00% # Class of executed instruction
system.cpu.op_class::SimdAlu                        0      0.00%     30.00% # Class of executed instruction
system.cpu.op_class::SimdCmp                        0      0.00%     30.00% # Class of executed instruction
system.cpu.op_class::SimdCvt                        0      0.00%     30.00% # Class of executed instruction
system.cpu.op_class::SimdMisc                       0      0.00%     30.00% # Class of executed instruction
system.cpu.op_class::SimdMult                       0      0.00%     30.00% # Class of executed instruction
system.cpu.op_class::SimdMultAcc                    0      0.00%     30.00% # Class of executed instruction
system.cpu.op_class::SimdShift                      0      0.00%     30.00% # Class of executed instruction
system.cpu.op_class::SimdShiftAcc                   0      0.00%     30.00% # Class of executed instruction
system.cpu.op_class::SimdDiv                        0      0.00%     30.00% # Class of executed instruction
system.cpu.op_class::SimdSqrt                       0      0.00%     30.00% # Class of executed instruction
system.cpu.op_class::SimdFloatAdd                   0      0.00%     30.00% # Class of executed instruction
system.cpu.op_class::SimdFloatAlu                   0      0.00%     30.00% # Class of executed instruction
system.cpu.op_class::SimdFloatCmp                   0      0.00%     30.00% # Class of executed instruction
system.cpu.op_class::SimdFloatCvt                   0      0.00%     30.00% # Class of executed instruction
system.cpu.op_class::SimdFloatDiv                   0      0.00%     30.00% # Class of executed instruction
system.cpu.op_class::SimdFloatMisc                  0      0.00%     30.00% # Class of executed instruction
system.cpu.op_class::SimdFloatMult                  0      0.00%     30.00% # Class of executed instruction
system.cpu.op_class::SimdFloatMultAcc               0      0.00%     30.00% # Class of executed instruction
system.cpu.op_class::SimdFloatSqrt                  0      0.00%     30.00% # Class of executed instruction
system.cpu.op_class::SimdReduceAdd                  0      0.00%     30.00% # Class of executed instruction
system.cpu.op_class::SimdReduceAlu                  0      0.00%     30.00% # Class of executed instruction
system.cpu.op_class::SimdReduceCmp                  0      0.00%     30.00% # Class of executed instruction
system.cpu.op_class::SimdFloatReduceAdd             0      0.00%     30.00% # Class of executed instruction
system.cpu.op_class::SimdFloatReduceCmp             0      0.00%     30.00% # Class of executed instruction
system.cpu.op_class::SimdAes                        0      0.00%     30.00% # Class of executed instruction
system.cpu.op_class::SimdAesMix                     0      0.00%     30.00% # Class of executed instruction
system.cpu.op_class::SimdSha1Hash                   0      0.00%     30.00% # Class of executed instruction
system.cpu.op_class::SimdSha1Hash2                  0      0.00%     30.00% # Class of executed instruction
system.cpu.op_class::SimdSha256Hash                 0      0.00%     30.00% # Class of executed instruction
system.cpu.op_class::SimdSha256Hash2                0      0.00%     30.00% # Class of executed instruction
system.cpu.op_class::SimdShaSigma2                  0      0.00%     30.00% # Class of executed instruction
system.cpu.op_class::SimdShaSigma3                  0      0.00%     30.00% # Class of executed instruction
system.cpu.op_class::SimdPredAlu                    0      0.00%     30.00% # Class of executed instruction
system.cpu.op_class::MemRead                       16     53.33%     83.33% # Class of executed instruction
system.cpu.op_class::MemWrite                       5     16.67%    100.00% # Class of executed instruction
system.cpu.op_class::FloatMemRead                   0      0.00%    100.00% # Class of executed instruction
system.cpu.op_class::FloatMemWrite                  0      0.00%    100.00% # Class of executed instruction
system.cpu.op_class::IprAccess                      0      0.00%    100.00% # Class of executed instruction
system.cpu.op_class::InstPrefetch                   0      0.00%    100.00% # Class of executed instruction
system.cpu.op_class::total                         30                       # Class of executed instruction
system.cpu.workload.numSyscalls                     0                       # Number of system calls
system.membus.snoop_filter.hit_multi_requests            0                       # Number of requests hitting in the snoop filter with multiple (>1) holders of the requested data.
system.membus.snoop_filter.hit_multi_snoops            0                       # Number of snoops hitting in the snoop filter with multiple (>1) holders of the requested data.
system.membus.snoop_filter.hit_single_requests            0                       # Number of requests hitting in the snoop filter with a single holder of the requested data.
system.membus.snoop_filter.hit_single_snoops            0                       # Number of snoops hitting in the snoop filter with a single holder of the requested data.
system.membus.snoop_filter.tot_requests           188                       # Total number of requests made to the snoop filter.
system.membus.snoop_filter.tot_snoops               0                       # Total number of snoops made to the snoop filter.
system.switch_cpus.cc_regfile_reads            202899                       # number of cc regfile reads
system.switch_cpus.cc_regfile_writes           204483                       # number of cc regfile writes
system.switch_cpus.committedInsts             1000000                       # Number of Instructions Simulated
system.switch_cpus.committedOps               1105236                       # Number of Ops (including micro ops) Simulated
system.switch_cpus.cpi                       0.561112                       # CPI: Cycles Per Instruction
system.switch_cpus.cpi_total                 0.561112                       # CPI: Total CPI of All Threads
system.switch_cpus.idleCycles                    5805                       # Total number of cycles that the CPU has spent unscheduled due to idling
system.switch_cpus.iew.branchMispredicts         3400                       # Number of branch mispredicts detected at execute
system.switch_cpus.iew.exec_branches           133364                       # Number of branches executed
system.switch_cpus.iew.exec_nop                  4114                       # number of nop insts executed
system.switch_cpus.iew.exec_rate             2.279625                       # Inst execution rate
system.switch_cpus.iew.exec_refs               579875                       # number of memory reference insts executed
system.switch_cpus.iew.exec_stores             212152                       # Number of stores executed
system.switch_cpus.iew.exec_swp                     0                       # number of swp insts executed
system.switch_cpus.iew.iewBlockCycles           31381                       # Number of cycles IEW is blocking
system.switch_cpus.iew.iewDispLoadInsts        383076                       # Number of dispatched load instructions
system.switch_cpus.iew.iewDispNonSpecInsts            0                       # Number of dispatched non-speculative instructions
system.switch_cpus.iew.iewDispSquashedInsts           89                       # Number of squashed instructions skipped by dispatch
system.switch_cpus.iew.iewDispStoreInsts       233828                       # Number of dispatched store instructions
system.switch_cpus.iew.iewDispatchedInsts      1362078                       # Number of instructions dispatched to IQ
system.switch_cpus.iew.iewExecLoadInsts        367723                       # Number of load instructions executed
system.switch_cpus.iew.iewExecSquashedInsts         6743                       # Number of squashed instructions skipped in execute
system.switch_cpus.iew.iewExecutedInsts       1279125                       # Number of executed instructions
system.switch_cpus.iew.iewIQFullEvents             32                       # Number of times the IQ has become full, causing a stall
system.switch_cpus.iew.iewIdleCycles                0                       # Number of cycles IEW is idle
system.switch_cpus.iew.iewLSQFullEvents         15907                       # Number of times the LSQ has become full, causing a stall
system.switch_cpus.iew.iewSquashCycles           3530                       # Number of cycles IEW is squashing
system.switch_cpus.iew.iewUnblockCycles         15931                       # Number of cycles IEW is unblocking
system.switch_cpus.iew.memOrderViolationEvents          202                       # Number of memory order violations
system.switch_cpus.iew.predictedNotTakenIncorrect         1404                       # Number of branches that were predicted not taken incorrectly
system.switch_cpus.iew.predictedTakenIncorrect         1996                       # Number of branches that were predicted taken incorrectly
system.switch_cpus.iew.wb_consumers           1273368                       # num instructions consuming a value
system.switch_cpus.iew.wb_count               1256818                       # cumulative count of insts written-back
system.switch_cpus.iew.wb_fanout             0.670340                       # average fanout of values written-back
system.switch_cpus.iew.wb_producers            853589                       # num instructions producing a value
system.switch_cpus.iew.wb_rate               2.239870                       # insts written-back per cycle
system.switch_cpus.iew.wb_sent                1257866                       # cumulative count of insts sent to commit
system.switch_cpus.int_regfile_reads          1606997                       # number of integer regfile reads
system.switch_cpus.int_regfile_writes          977026                       # number of integer regfile writes
system.switch_cpus.ipc                       1.782175                       # IPC: Instructions Per Cycle
system.switch_cpus.ipc_total                 1.782175                       # IPC: Total IPC of All Threads
system.switch_cpus.iq.FU_type_0::No_OpClass            6      0.00%      0.00% # Type of FU issued
system.switch_cpus.iq.FU_type_0::IntAlu        661628     51.45%     51.45% # Type of FU issued
system.switch_cpus.iq.FU_type_0::IntMult        40041      3.11%     54.57% # Type of FU issued
system.switch_cpus.iq.FU_type_0::IntDiv             0      0.00%     54.57% # Type of FU issued
system.switch_cpus.iq.FU_type_0::FloatAdd            0      0.00%     54.57% # Type of FU issued
system.switch_cpus.iq.FU_type_0::FloatCmp            0      0.00%     54.57% # Type of FU issued
system.switch_cpus.iq.FU_type_0::FloatCvt            0      0.00%     54.57% # Type of FU issued
system.switch_cpus.iq.FU_type_0::FloatMult            0      0.00%     54.57% # Type of FU issued
system.switch_cpus.iq.FU_type_0::FloatMultAcc            0      0.00%     54.57% # Type of FU issued
system.switch_cpus.iq.FU_type_0::FloatDiv            0      0.00%     54.57% # Type of FU issued
system.switch_cpus.iq.FU_type_0::FloatMisc            0      0.00%     54.57% # Type of FU issued
system.switch_cpus.iq.FU_type_0::FloatSqrt            0      0.00%     54.57% # Type of FU issued
system.switch_cpus.iq.FU_type_0::SimdAdd            0      0.00%     54.57% # Type of FU issued
system.switch_cpus.iq.FU_type_0::SimdAddAcc            0      0.00%     54.57% # Type of FU issued
system.switch_cpus.iq.FU_type_0::SimdAlu            0      0.00%     54.57% # Type of FU issued
system.switch_cpus.iq.FU_type_0::SimdCmp            0      0.00%     54.57% # Type of FU issued
system.switch_cpus.iq.FU_type_0::SimdCvt            0      0.00%     54.57% # Type of FU issued
system.switch_cpus.iq.FU_type_0::SimdMisc            0      0.00%     54.57% # Type of FU issued
system.switch_cpus.iq.FU_type_0::SimdMult            0      0.00%     54.57% # Type of FU issued
system.switch_cpus.iq.FU_type_0::SimdMultAcc            0      0.00%     54.57% # Type of FU issued
system.switch_cpus.iq.FU_type_0::SimdShift            0      0.00%     54.57% # Type of FU issued
system.switch_cpus.iq.FU_type_0::SimdShiftAcc            0      0.00%     54.57% # Type of FU issued
system.switch_cpus.iq.FU_type_0::SimdDiv            0      0.00%     54.57% # Type of FU issued
system.switch_cpus.iq.FU_type_0::SimdSqrt            0      0.00%     54.57% # Type of FU issued
system.switch_cpus.iq.FU_type_0::SimdFloatAdd            0      0.00%     54.57% # Type of FU issued
system.switch_cpus.iq.FU_type_0::SimdFloatAlu            0      0.00%     54.57% # Type of FU issued
system.switch_cpus.iq.FU_type_0::SimdFloatCmp            0      0.00%     54.57% # Type of FU issued
system.switch_cpus.iq.FU_type_0::SimdFloatCvt            0      0.00%     54.57% # Type of FU issued
system.switch_cpus.iq.FU_type_0::SimdFloatDiv            0      0.00%     54.57% # Type of FU issued
system.switch_cpus.iq.FU_type_0::SimdFloatMisc            0      0.00%     54.57% # Type of FU issued
system.switch_cpus.iq.FU_type_0::SimdFloatMult            0      0.00%     54.57% # Type of FU issued
system.switch_cpus.iq.FU_type_0::SimdFloatMultAcc            0      0.00%     54.57% # Type of FU issued
system.switch_cpus.iq.FU_type_0::SimdFloatSqrt            0      0.00%     54.57% # Type of FU issued
system.switch_cpus.iq.FU_type_0::SimdReduceAdd            0      0.00%     54.57% # Type of FU issued
system.switch_cpus.iq.FU_type_0::SimdReduceAlu            0      0.00%     54.57% # Type of FU issued
system.switch_cpus.iq.FU_type_0::SimdReduceCmp            0      0.00%     54.57% # Type of FU issued
system.switch_cpus.iq.FU_type_0::SimdFloatReduceAdd            0      0.00%     54.57% # Type of FU issued
system.switch_cpus.iq.FU_type_0::SimdFloatReduceCmp            0      0.00%     54.57% # Type of FU issued
system.switch_cpus.iq.FU_type_0::SimdAes            0      0.00%     54.57% # Type of FU issued
system.switch_cpus.iq.FU_type_0::SimdAesMix            0      0.00%     54.57% # Type of FU issued
system.switch_cpus.iq.FU_type_0::SimdSha1Hash            0      0.00%     54.57% # Type of FU issued
system.switch_cpus.iq.FU_type_0::SimdSha1Hash2            0      0.00%     54.57% # Type of FU issued
system.switch_cpus.iq.FU_type_0::SimdSha256Hash            0      0.00%     54.57% # Type of FU issued
system.switch_cpus.iq.FU_type_0::SimdSha256Hash2            0      0.00%     54.57% # Type of FU issued
system.switch_cpus.iq.FU_type_0::SimdShaSigma2            0      0.00%     54.57% # Type of FU issued
system.switch_cpus.iq.FU_type_0::SimdShaSigma3            0      0.00%     54.57% # Type of FU issued
system.switch_cpus.iq.FU_type_0::SimdPredAlu            0      0.00%     54.57% # Type of FU issued
system.switch_cpus.iq.FU_type_0::MemRead       370450     28.81%     83.38% # Type of FU issued
system.switch_cpus.iq.FU_type_0::MemWrite       213744     16.62%    100.00% # Type of FU issued
system.switch_cpus.iq.FU_type_0::FloatMemRead            0      0.00%    100.00% # Type of FU issued
system.switch_cpus.iq.FU_type_0::FloatMemWrite            0      0.00%    100.00% # Type of FU issued
system.switch_cpus.iq.FU_type_0::IprAccess            0      0.00%    100.00% # Type of FU issued
system.switch_cpus.iq.FU_type_0::InstPrefetch            0      0.00%    100.00% # Type of FU issued
system.switch_cpus.iq.FU_type_0::total        1285869                       # Type of FU issued
system.switch_cpus.iq.fp_alu_accesses               0                       # Number of floating point alu accesses
system.switch_cpus.iq.fp_inst_queue_reads            0                       # Number of floating instruction queue reads
system.switch_cpus.iq.fp_inst_queue_wakeup_accesses            0                       # Number of floating instruction queue wakeup accesses
system.switch_cpus.iq.fp_inst_queue_writes            0                       # Number of floating instruction queue writes
system.switch_cpus.iq.fu_busy_cnt               14508                       # FU busy when requested
system.switch_cpus.iq.fu_busy_rate           0.011283                       # FU busy rate (busy events/executed inst)
system.switch_cpus.iq.fu_full::No_OpClass            0      0.00%      0.00% # attempts to use FU when none available
system.switch_cpus.iq.fu_full::IntAlu              46      0.32%      0.32% # attempts to use FU when none available
system.switch_cpus.iq.fu_full::IntMult              0      0.00%      0.32% # attempts to use FU when none available
system.switch_cpus.iq.fu_full::IntDiv               0      0.00%      0.32% # attempts to use FU when none available
system.switch_cpus.iq.fu_full::FloatAdd             0      0.00%      0.32% # attempts to use FU when none available
system.switch_cpus.iq.fu_full::FloatCmp             0      0.00%      0.32% # attempts to use FU when none available
system.switch_cpus.iq.fu_full::FloatCvt             0      0.00%      0.32% # attempts to use FU when none available
system.switch_cpus.iq.fu_full::FloatMult            0      0.00%      0.32% # attempts to use FU when none available
system.switch_cpus.iq.fu_full::FloatMultAcc            0      0.00%      0.32% # attempts to use FU when none available
system.switch_cpus.iq.fu_full::FloatDiv             0      0.00%      0.32% # attempts to use FU when none available
system.switch_cpus.iq.fu_full::FloatMisc            0      0.00%      0.32% # attempts to use FU when none available
system.switch_cpus.iq.fu_full::FloatSqrt            0      0.00%      0.32% # attempts to use FU when none available
system.switch_cpus.iq.fu_full::SimdAdd              0      0.00%      0.32% # attempts to use FU when none available
system.switch_cpus.iq.fu_full::SimdAddAcc            0      0.00%      0.32% # attempts to use FU when none available
system.switch_cpus.iq.fu_full::SimdAlu              0      0.00%      0.32% # attempts to use FU when none available
system.switch_cpus.iq.fu_full::SimdCmp              0      0.00%      0.32% # attempts to use FU when none available
system.switch_cpus.iq.fu_full::SimdCvt              0      0.00%      0.32% # attempts to use FU when none available
system.switch_cpus.iq.fu_full::SimdMisc             0      0.00%      0.32% # attempts to use FU when none available
system.switch_cpus.iq.fu_full::SimdMult             0      0.00%      0.32% # attempts to use FU when none available
system.switch_cpus.iq.fu_full::SimdMultAcc            0      0.00%      0.32% # attempts to use FU when none available
system.switch_cpus.iq.fu_full::SimdShift            0      0.00%      0.32% # attempts to use FU when none available
system.switch_cpus.iq.fu_full::SimdShiftAcc            0      0.00%      0.32% # attempts to use FU when none available
system.switch_cpus.iq.fu_full::SimdDiv              0      0.00%      0.32% # attempts to use FU when none available
system.switch_cpus.iq.fu_full::SimdSqrt             0      0.00%      0.32% # attempts to use FU when none available
system.switch_cpus.iq.fu_full::SimdFloatAdd            0      0.00%      0.32% # attempts to use FU when none available
system.switch_cpus.iq.fu_full::SimdFloatAlu            0      0.00%      0.32% # attempts to use FU when none available
system.switch_cpus.iq.fu_full::SimdFloatCmp            0      0.00%      0.32% # attempts to use FU when none available
system.switch_cpus.iq.fu_full::SimdFloatCvt            0      0.00%      0.32% # attempts to use FU when none available
system.switch_cpus.iq.fu_full::SimdFloatDiv            0      0.00%      0.32% # attempts to use FU when none available
system.switch_cpus.iq.fu_full::SimdFloatMisc            0      0.00%      0.32% # attempts to use FU when none available
system.switch_cpus.iq.fu_full::SimdFloatMult            0      0.00%      0.32% # attempts to use FU when none available
system.switch_cpus.iq.fu_full::SimdFloatMultAcc            0      0.00%      0.32% # attempts to use FU when none available
system.switch_cpus.iq.fu_full::SimdFloatSqrt            0      0.00%      0.32% # attempts to use FU when none available
system.switch_cpus.iq.fu_full::SimdReduceAdd            0      0.00%      0.32% # attempts to use FU when none available
system.switch_cpus.iq.fu_full::SimdReduceAlu            0      0.00%      0.32% # attempts to use FU when none available
system.switch_cpus.iq.fu_full::SimdReduceCmp            0      0.00%      0.32% # attempts to use FU when none available
system.switch_cpus.iq.fu_full::SimdFloatReduceAdd            0      0.00%      0.32% # attempts to use FU when none available
system.switch_cpus.iq.fu_full::SimdFloatReduceCmp            0      0.00%      0.32% # attempts to use FU when none available
system.switch_cpus.iq.fu_full::SimdAes              0      0.00%      0.32% # attempts to use FU when none available
system.switch_cpus.iq.fu_full::SimdAesMix            0      0.00%      0.32% # attempts to use FU when none available
system.switch_cpus.iq.fu_full::SimdSha1Hash            0      0.00%      0.32% # attempts to use FU when none available
system.switch_cpus.iq.fu_full::SimdSha1Hash2            0      0.00%      0.32% # attempts to use FU when none available
system.switch_cpus.iq.fu_full::SimdSha256Hash            0      0.00%      0.32% # attempts to use FU when none available
system.switch_cpus.iq.fu_full::SimdSha256Hash2            0      0.00%      0.32% # attempts to use FU when none available
system.switch_cpus.iq.fu_full::SimdShaSigma2            0      0.00%      0.32% # attempts to use FU when none available
system.switch_cpus.iq.fu_full::SimdShaSigma3            0      0.00%      0.32% # attempts to use FU when none available
system.switch_cpus.iq.fu_full::SimdPredAlu            0      0.00%      0.32% # attempts to use FU when none available
system.switch_cpus.iq.fu_full::MemRead          10551     72.73%     73.04% # attempts to use FU when none available
system.switch_cpus.iq.fu_full::MemWrite          3911     26.96%    100.00% # attempts to use FU when none available
system.switch_cpus.iq.fu_full::FloatMemRead            0      0.00%    100.00% # attempts to use FU when none available
system.switch_cpus.iq.fu_full::FloatMemWrite            0      0.00%    100.00% # attempts to use FU when none available
system.switch_cpus.iq.fu_full::IprAccess            0      0.00%    100.00% # attempts to use FU when none available
system.switch_cpus.iq.fu_full::InstPrefetch            0      0.00%    100.00% # attempts to use FU when none available
system.switch_cpus.iq.int_alu_accesses        1300371                       # Number of integer alu accesses
system.switch_cpus.iq.int_inst_queue_reads      3141635                       # Number of integer instruction queue reads
system.switch_cpus.iq.int_inst_queue_wakeup_accesses      1256818                       # Number of integer instruction queue wakeup accesses
system.switch_cpus.iq.int_inst_queue_writes      1610785                       # Number of integer instruction queue writes
system.switch_cpus.iq.iqInstsAdded            1357964                       # Number of instructions added to the IQ (excludes non-spec)
system.switch_cpus.iq.iqInstsIssued           1285869                       # Number of instructions issued
system.switch_cpus.iq.iqSquashedInstsExamined       252639                       # Number of squashed instructions iterated over during squash; mainly for profiling
system.switch_cpus.iq.iqSquashedInstsIssued           83                       # Number of squashed instructions issued
system.switch_cpus.iq.iqSquashedOperandsExamined       159998                       # Number of squashed operands that are examined and possibly removed from graph
system.switch_cpus.iq.issued_per_cycle::samples       555307                       # Number of insts issued each cycle
system.switch_cpus.iq.issued_per_cycle::mean     2.315600                       # Number of insts issued each cycle
system.switch_cpus.iq.issued_per_cycle::stdev     1.817826                       # Number of insts issued each cycle
system.switch_cpus.iq.issued_per_cycle::underflows            0      0.00%      0.00% # Number of insts issued each cycle
system.switch_cpus.iq.issued_per_cycle::0       105772     19.05%     19.05% # Number of insts issued each cycle
system.switch_cpus.iq.issued_per_cycle::1       105690     19.03%     38.08% # Number of insts issued each cycle
system.switch_cpus.iq.issued_per_cycle::2       110886     19.97%     58.05% # Number of insts issued each cycle
system.switch_cpus.iq.issued_per_cycle::3        89763     16.16%     74.21% # Number of insts issued each cycle
system.switch_cpus.iq.issued_per_cycle::4        69156     12.45%     86.67% # Number of insts issued each cycle
system.switch_cpus.iq.issued_per_cycle::5        44768      8.06%     94.73% # Number of insts issued each cycle
system.switch_cpus.iq.issued_per_cycle::6        19594      3.53%     98.26% # Number of insts issued each cycle
system.switch_cpus.iq.issued_per_cycle::7         6334      1.14%     99.40% # Number of insts issued each cycle
system.switch_cpus.iq.issued_per_cycle::8         3344      0.60%    100.00% # Number of insts issued each cycle
system.switch_cpus.iq.issued_per_cycle::overflows            0      0.00%    100.00% # Number of insts issued each cycle
system.switch_cpus.iq.issued_per_cycle::min_value            0                       # Number of insts issued each cycle
system.switch_cpus.iq.issued_per_cycle::max_value            8                       # Number of insts issued each cycle
system.switch_cpus.iq.issued_per_cycle::total       555307                       # Number of insts issued each cycle
system.switch_cpus.iq.rate                   2.291644                       # Inst issue rate
system.switch_cpus.iq.vec_alu_accesses              0                       # Number of vector alu accesses
system.switch_cpus.iq.vec_inst_queue_reads            0                       # Number of vector instruction queue reads
system.switch_cpus.iq.vec_inst_queue_wakeup_accesses            0                       # Number of vector instruction queue wakeup accesses
system.switch_cpus.iq.vec_inst_queue_writes            0                       # Number of vector instruction queue writes
system.switch_cpus.memDep0.conflictingLoads       169470                       # Number of conflicting loads.
system.switch_cpus.memDep0.conflictingStores        51567                       # Number of conflicting stores.
system.switch_cpus.memDep0.insertedLoads       383076                       # Number of loads inserted to the mem dependence unit.
system.switch_cpus.memDep0.insertedStores       233828                       # Number of stores inserted to the mem dependence unit.
system.switch_cpus.misc_regfile_reads         2823019                       # number of misc regfile reads
system.switch_cpus.misc_regfile_writes              1                       # number of misc regfile writes
system.switch_cpus.numCycles                   561112                       # number of cpu cycles simulated
system.switch_cpus.numWorkItemsCompleted            0                       # number of work items this cpu completed
system.switch_cpus.numWorkItemsStarted              0                       # number of work items this cpu started
system.switch_cpus.timesIdled                      35                       # Number of times that the entire CPU went into an idle state and unscheduled itself
system.switch_cpus.vec_regfile_writes              44                       # number of vector regfile writes
system.tol2bus.snoop_filter.hit_multi_requests            0                       # Number of requests hitting in the snoop filter with multiple (>1) holders of the requested data.
system.tol2bus.snoop_filter.hit_multi_snoops            0                       # Number of snoops hitting in the snoop filter with multiple (>1) holders of the requested data.
system.tol2bus.snoop_filter.hit_single_requests            0                       # Number of requests hitting in the snoop filter with a single holder of the requested data.
system.tol2bus.snoop_filter.hit_single_snoops            0                       # Number of snoops hitting in the snoop filter with a single holder of the requested data.
system.tol2bus.snoop_filter.tot_requests          188                       # Total number of requests made to the snoop filter.
system.tol2bus.snoop_filter.tot_snoops              0                       # Total number of snoops made to the snoop filter.
system.clk_domain.clock                          1000                       # Clock period in ticks
system.cpu.dcache.demand_hits::.cpu.data           18                       # number of demand (read+write) hits
system.cpu.dcache.demand_hits::.switch_cpus.data       374105                       # number of demand (read+write) hits
system.cpu.dcache.demand_hits::total           374123                       # number of demand (read+write) hits
system.cpu.dcache.overall_hits::.cpu.data           18                       # number of overall hits
system.cpu.dcache.overall_hits::.switch_cpus.data       374105                       # number of overall hits
system.cpu.dcache.overall_hits::total          374123                       # number of overall hits
system.cpu.dcache.demand_misses::.cpu.data            3                       # number of demand (read+write) misses
system.cpu.dcache.demand_misses::.switch_cpus.data          418                       # number of demand (read+write) misses
system.cpu.dcache.demand_misses::total            421                       # number of demand (read+write) misses
system.cpu.dcache.overall_misses::.cpu.data            3                       # number of overall misses
system.cpu.dcache.overall_misses::.switch_cpus.data          418                       # number of overall misses
system.cpu.dcache.overall_misses::total           421                       # number of overall misses
system.cpu.dcache.demand_miss_latency::.switch_cpus.data     28279619                       # number of demand (read+write) miss cycles
system.cpu.dcache.demand_miss_latency::total     28279619                       # number of demand (read+write) miss cycles
system.cpu.dcache.overall_miss_latency::.switch_cpus.data     28279619                       # number of overall miss cycles
system.cpu.dcache.overall_miss_latency::total     28279619                       # number of overall miss cycles
system.cpu.dcache.demand_accesses::.cpu.data           21                       # number of demand (read+write) accesses
system.cpu.dcache.demand_accesses::.switch_cpus.data       374523                       # number of demand (read+write) accesses
system.cpu.dcache.demand_accesses::total       374544                       # number of demand (read+write) accesses
system.cpu.dcache.overall_accesses::.cpu.data           21                       # number of overall (read+write) accesses
system.cpu.dcache.overall_accesses::.switch_cpus.data       374523                       # number of overall (read+write) accesses
system.cpu.dcache.overall_accesses::total       374544                       # number of overall (read+write) accesses
system.cpu.dcache.demand_miss_rate::.cpu.data     0.142857                       # miss rate for demand accesses
system.cpu.dcache.demand_miss_rate::.switch_cpus.data     0.001116                       # miss rate for demand accesses
system.cpu.dcache.demand_miss_rate::total     0.001124                       # miss rate for demand accesses
system.cpu.dcache.overall_miss_rate::.cpu.data     0.142857                       # miss rate for overall accesses
system.cpu.dcache.overall_miss_rate::.switch_cpus.data     0.001116                       # miss rate for overall accesses
system.cpu.dcache.overall_miss_rate::total     0.001124                       # miss rate for overall accesses
system.cpu.dcache.demand_avg_miss_latency::.switch_cpus.data 67654.590909                       # average overall miss latency
system.cpu.dcache.demand_avg_miss_latency::total 67172.491686                       # average overall miss latency
system.cpu.dcache.overall_avg_miss_latency::.switch_cpus.data 67654.590909                       # average overall miss latency
system.cpu.dcache.overall_avg_miss_latency::total 67172.491686                       # average overall miss latency
system.cpu.dcache.blocked_cycles::no_mshrs            0                       # number of cycles access was blocked
system.cpu.dcache.blocked_cycles::no_targets            0                       # number of cycles access was blocked
system.cpu.dcache.blocked::no_mshrs                 0                       # number of cycles access was blocked
system.cpu.dcache.blocked::no_targets               0                       # number of cycles access was blocked
system.cpu.dcache.avg_blocked_cycles::no_mshrs          nan                       # average number of cycles each access was blocked
system.cpu.dcache.avg_blocked_cycles::no_targets          nan                       # average number of cycles each access was blocked
system.cpu.dcache.demand_mshr_hits::.switch_cpus.data          278                       # number of demand (read+write) MSHR hits
system.cpu.dcache.demand_mshr_hits::total          278                       # number of demand (read+write) MSHR hits
system.cpu.dcache.overall_mshr_hits::.switch_cpus.data          278                       # number of overall MSHR hits
system.cpu.dcache.overall_mshr_hits::total          278                       # number of overall MSHR hits
system.cpu.dcache.demand_mshr_misses::.switch_cpus.data          140                       # number of demand (read+write) MSHR misses
system.cpu.dcache.demand_mshr_misses::total          140                       # number of demand (read+write) MSHR misses
system.cpu.dcache.overall_mshr_misses::.switch_cpus.data          140                       # number of overall MSHR misses
system.cpu.dcache.overall_mshr_misses::total          140                       # number of overall MSHR misses
system.cpu.dcache.demand_mshr_miss_latency::.switch_cpus.data      8826944                       # number of demand (read+write) MSHR miss cycles
system.cpu.dcache.demand_mshr_miss_latency::total      8826944                       # number of demand (read+write) MSHR miss cycles
system.cpu.dcache.overall_mshr_miss_latency::.switch_cpus.data      8826944                       # number of overall MSHR miss cycles
system.cpu.dcache.overall_mshr_miss_latency::total      8826944                       # number of overall MSHR miss cycles
system.cpu.dcache.demand_mshr_miss_rate::.switch_cpus.data     0.000374                       # mshr miss rate for demand accesses
system.cpu.dcache.demand_mshr_miss_rate::total     0.000374                       # mshr miss rate for demand accesses
system.cpu.dcache.overall_mshr_miss_rate::.switch_cpus.data     0.000374                       # mshr miss rate for overall accesses
system.cpu.dcache.overall_mshr_miss_rate::total     0.000374                       # mshr miss rate for overall accesses
system.cpu.dcache.demand_avg_mshr_miss_latency::.switch_cpus.data 63049.600000                       # average overall mshr miss latency
system.cpu.dcache.demand_avg_mshr_miss_latency::total 63049.600000                       # average overall mshr miss latency
system.cpu.dcache.overall_avg_mshr_miss_latency::.switch_cpus.data 63049.600000                       # average overall mshr miss latency
system.cpu.dcache.overall_avg_mshr_miss_latency::total 63049.600000                       # average overall mshr miss latency
system.cpu.dcache.replacements                      0                       # number of replacements
system.cpu.dcache.ReadReq_hits::.cpu.data           14                       # number of ReadReq hits
system.cpu.dcache.ReadReq_hits::.switch_cpus.data       191978                       # number of ReadReq hits
system.cpu.dcache.ReadReq_hits::total          191992                       # number of ReadReq hits
system.cpu.dcache.ReadReq_misses::.cpu.data            2                       # number of ReadReq misses
system.cpu.dcache.ReadReq_misses::.switch_cpus.data          365                       # number of ReadReq misses
system.cpu.dcache.ReadReq_misses::total           367                       # number of ReadReq misses
system.cpu.dcache.ReadReq_miss_latency::.switch_cpus.data     25658474                       # number of ReadReq miss cycles
system.cpu.dcache.ReadReq_miss_latency::total     25658474                       # number of ReadReq miss cycles
system.cpu.dcache.ReadReq_accesses::.cpu.data           16                       # number of ReadReq accesses(hits+misses)
system.cpu.dcache.ReadReq_accesses::.switch_cpus.data       192343                       # number of ReadReq accesses(hits+misses)
system.cpu.dcache.ReadReq_accesses::total       192359                       # number of ReadReq accesses(hits+misses)
system.cpu.dcache.ReadReq_miss_rate::.cpu.data     0.125000                       # miss rate for ReadReq accesses
system.cpu.dcache.ReadReq_miss_rate::.switch_cpus.data     0.001898                       # miss rate for ReadReq accesses
system.cpu.dcache.ReadReq_miss_rate::total     0.001908                       # miss rate for ReadReq accesses
system.cpu.dcache.ReadReq_avg_miss_latency::.switch_cpus.data 70297.189041                       # average ReadReq miss latency
system.cpu.dcache.ReadReq_avg_miss_latency::total 69914.098093                       # average ReadReq miss latency
system.cpu.dcache.ReadReq_mshr_hits::.switch_cpus.data          251                       # number of ReadReq MSHR hits
system.cpu.dcache.ReadReq_mshr_hits::total          251                       # number of ReadReq MSHR hits
system.cpu.dcache.ReadReq_mshr_misses::.switch_cpus.data          114                       # number of ReadReq MSHR misses
system.cpu.dcache.ReadReq_mshr_misses::total          114                       # number of ReadReq MSHR misses
system.cpu.dcache.ReadReq_mshr_miss_latency::.switch_cpus.data      7515241                       # number of ReadReq MSHR miss cycles
system.cpu.dcache.ReadReq_mshr_miss_latency::total      7515241                       # number of ReadReq MSHR miss cycles
system.cpu.dcache.ReadReq_mshr_miss_rate::.switch_cpus.data     0.000593                       # mshr miss rate for ReadReq accesses
system.cpu.dcache.ReadReq_mshr_miss_rate::total     0.000593                       # mshr miss rate for ReadReq accesses
system.cpu.dcache.ReadReq_avg_mshr_miss_latency::.switch_cpus.data 65923.166667                       # average ReadReq mshr miss latency
system.cpu.dcache.ReadReq_avg_mshr_miss_latency::total 65923.166667                       # average ReadReq mshr miss latency
system.cpu.dcache.WriteReq_hits::.cpu.data            4                       # number of WriteReq hits
system.cpu.dcache.WriteReq_hits::.switch_cpus.data       182127                       # number of WriteReq hits
system.cpu.dcache.WriteReq_hits::total         182131                       # number of WriteReq hits
system.cpu.dcache.WriteReq_misses::.cpu.data            1                       # number of WriteReq misses
system.cpu.dcache.WriteReq_misses::.switch_cpus.data           53                       # number of WriteReq misses
system.cpu.dcache.WriteReq_misses::total           54                       # number of WriteReq misses
system.cpu.dcache.WriteReq_miss_latency::.switch_cpus.data      2621145                       # number of WriteReq miss cycles
system.cpu.dcache.WriteReq_miss_latency::total      2621145                       # number of WriteReq miss cycles
system.cpu.dcache.WriteReq_accesses::.cpu.data            5                       # number of WriteReq accesses(hits+misses)
system.cpu.dcache.WriteReq_accesses::.switch_cpus.data       182180                       # number of WriteReq accesses(hits+misses)
system.cpu.dcache.WriteReq_accesses::total       182185                       # number of WriteReq accesses(hits+misses)
system.cpu.dcache.WriteReq_miss_rate::.cpu.data     0.200000                       # miss rate for WriteReq accesses
system.cpu.dcache.WriteReq_miss_rate::.switch_cpus.data     0.000291                       # miss rate for WriteReq accesses
system.cpu.dcache.WriteReq_miss_rate::total     0.000296                       # miss rate for WriteReq accesses
system.cpu.dcache.WriteReq_avg_miss_latency::.switch_cpus.data 49455.566038                       # average WriteReq miss latency
system.cpu.dcache.WriteReq_avg_miss_latency::total 48539.722222                       # average WriteReq miss latency
system.cpu.dcache.WriteReq_mshr_hits::.switch_cpus.data           27                       # number of WriteReq MSHR hits
system.cpu.dcache.WriteReq_mshr_hits::total           27                       # number of WriteReq MSHR hits
system.cpu.dcache.WriteReq_mshr_misses::.switch_cpus.data           26                       # number of WriteReq MSHR misses
system.cpu.dcache.WriteReq_mshr_misses::total           26                       # number of WriteReq MSHR misses
system.cpu.dcache.WriteReq_mshr_miss_latency::.switch_cpus.data      1311703                       # number of WriteReq MSHR miss cycles
system.cpu.dcache.WriteReq_mshr_miss_latency::total      1311703                       # number of WriteReq MSHR miss cycles
system.cpu.dcache.WriteReq_mshr_miss_rate::.switch_cpus.data     0.000143                       # mshr miss rate for WriteReq accesses
system.cpu.dcache.WriteReq_mshr_miss_rate::total     0.000143                       # mshr miss rate for WriteReq accesses
system.cpu.dcache.WriteReq_avg_mshr_miss_latency::.switch_cpus.data 50450.115385                       # average WriteReq mshr miss latency
system.cpu.dcache.WriteReq_avg_mshr_miss_latency::total 50450.115385                       # average WriteReq mshr miss latency
system.cpu.dcache.power_state.pwrStateResidencyTicks::UNDEFINED 114637505271                       # Cumulative time (in ticks) in various power states
system.cpu.dcache.tags.tagsinuse            74.483257                       # Cycle average of tags in use
system.cpu.dcache.tags.total_refs                   0                       # Total number of references to valid blocks.
system.cpu.dcache.tags.sampled_refs                 0                       # Sample count of references to valid blocks.
system.cpu.dcache.tags.avg_refs                   nan                       # Average number of references to valid blocks.
system.cpu.dcache.tags.warmup_cycle      114456258020                       # Cycle when the warmup percentage was hit.
system.cpu.dcache.tags.occ_blocks::.cpu.data     2.999942                       # Average occupied blocks per requestor
system.cpu.dcache.tags.occ_blocks::.switch_cpus.data    71.483315                       # Average occupied blocks per requestor
system.cpu.dcache.tags.occ_percent::.cpu.data     0.011719                       # Average percentage of cache occupancy
system.cpu.dcache.tags.occ_percent::.switch_cpus.data     0.279232                       # Average percentage of cache occupancy
system.cpu.dcache.tags.occ_percent::total     0.290950                       # Average percentage of cache occupancy
system.cpu.dcache.tags.occ_task_id_blocks::1024          143                       # Occupied blocks per task id
system.cpu.dcache.tags.age_task_id_blocks_1024::0            8                       # Occupied blocks per task id
system.cpu.dcache.tags.age_task_id_blocks_1024::1           68                       # Occupied blocks per task id
system.cpu.dcache.tags.age_task_id_blocks_1024::2           67                       # Occupied blocks per task id
system.cpu.dcache.tags.occ_task_id_percent::1024     0.558594                       # Percentage of cache occupancy per task id
system.cpu.dcache.tags.tag_accesses           2996495                       # Number of tag accesses
system.cpu.dcache.tags.data_accesses          2996495                       # Number of data accesses
system.cpu.dcache.tags.power_state.pwrStateResidencyTicks::UNDEFINED 114637505271                       # Cumulative time (in ticks) in various power states
system.cpu.dtb.instHits                             0                       # ITB inst hits
system.cpu.dtb.instMisses                           0                       # ITB inst misses
system.cpu.dtb.readHits                             0                       # DTB read hits
system.cpu.dtb.readMisses                           0                       # DTB read misses
system.cpu.dtb.writeHits                            0                       # DTB write hits
system.cpu.dtb.writeMisses                          0                       # DTB write misses
system.cpu.dtb.inserts                              0                       # Number of times an entry is inserted into the TLB
system.cpu.dtb.flushTlb                             2                       # Number of times complete TLB was flushed
system.cpu.dtb.flushTlbMva                          0                       # Number of times TLB was flushed by MVA
system.cpu.dtb.flushTlbMvaAsid                      0                       # Number of times TLB was flushed by MVA & ASID
system.cpu.dtb.flushTlbAsid                         0                       # Number of times TLB was flushed by ASID
system.cpu.dtb.flushedEntries                       0                       # Number of entries that have been flushed from TLB
system.cpu.dtb.alignFaults                          0                       # Number of TLB faults due to alignment restrictions
system.cpu.dtb.prefetchFaults                       0                       # Number of TLB faults due to prefetch
system.cpu.dtb.domainFaults                         0                       # Number of TLB faults due to domain restrictions
system.cpu.dtb.permsFaults                          0                       # Number of TLB faults due to permissions restrictions
system.cpu.dtb.readAccesses                         0                       # DTB read accesses
system.cpu.dtb.writeAccesses                        0                       # DTB write accesses
system.cpu.dtb.instAccesses                         0                       # ITB inst accesses
system.cpu.dtb.hits                                 0                       # Total TLB (inst and data) hits
system.cpu.dtb.misses                               0                       # Total TLB (inst and data) misses
system.cpu.dtb.accesses                             0                       # Total TLB (inst and data) accesses
system.cpu.dtb.stage2_mmu.stage2_tlb.instHits            0                       # ITB inst hits
system.cpu.dtb.stage2_mmu.stage2_tlb.instMisses            0                       # ITB inst misses
system.cpu.dtb.stage2_mmu.stage2_tlb.readHits            0                       # DTB read hits
system.cpu.dtb.stage2_mmu.stage2_tlb.readMisses            0                       # DTB read misses
system.cpu.dtb.stage2_mmu.stage2_tlb.writeHits            0                       # DTB write hits
system.cpu.dtb.stage2_mmu.stage2_tlb.writeMisses            0                       # DTB write misses
system.cpu.dtb.stage2_mmu.stage2_tlb.inserts            0                       # Number of times an entry is inserted into the TLB
system.cpu.dtb.stage2_mmu.stage2_tlb.flushTlb            0                       # Number of times complete TLB was flushed
system.cpu.dtb.stage2_mmu.stage2_tlb.flushTlbMva            0                       # Number of times TLB was flushed by MVA
system.cpu.dtb.stage2_mmu.stage2_tlb.flushTlbMvaAsid            0                       # Number of times TLB was flushed by MVA & ASID
system.cpu.dtb.stage2_mmu.stage2_tlb.flushTlbAsid            0                       # Number of times TLB was flushed by ASID
system.cpu.dtb.stage2_mmu.stage2_tlb.flushedEntries            0                       # Number of entries that have been flushed from TLB
system.cpu.dtb.stage2_mmu.stage2_tlb.alignFaults            0                       # Number of TLB faults due to alignment restrictions
system.cpu.dtb.stage2_mmu.stage2_tlb.prefetchFaults            0                       # Number of TLB faults due to prefetch
system.cpu.dtb.stage2_mmu.stage2_tlb.domainFaults            0                       # Number of TLB faults due to domain restrictions
system.cpu.dtb.stage2_mmu.stage2_tlb.permsFaults            0                       # Number of TLB faults due to permissions restrictions
system.cpu.dtb.stage2_mmu.stage2_tlb.readAccesses            0                       # DTB read accesses
system.cpu.dtb.stage2_mmu.stage2_tlb.writeAccesses            0                       # DTB write accesses
system.cpu.dtb.stage2_mmu.stage2_tlb.instAccesses            0                       # ITB inst accesses
system.cpu.dtb.stage2_mmu.stage2_tlb.hits            0                       # Total TLB (inst and data) hits
system.cpu.dtb.stage2_mmu.stage2_tlb.misses            0                       # Total TLB (inst and data) misses
system.cpu.dtb.stage2_mmu.stage2_tlb.accesses            0                       # Total TLB (inst and data) accesses
system.cpu.dtb.stage2_mmu.stage2_tlb.walker.walks            0                       # Table walker walks requested
system.cpu.dtb.stage2_mmu.stage2_tlb.walker.requestOrigin_Requested::Data            0                       # Table walker requests started/completed, data/inst
system.cpu.dtb.stage2_mmu.stage2_tlb.walker.requestOrigin_Requested::Inst            0                       # Table walker requests started/completed, data/inst
system.cpu.dtb.stage2_mmu.stage2_tlb.walker.requestOrigin_Requested::total            0                       # Table walker requests started/completed, data/inst
system.cpu.dtb.stage2_mmu.stage2_tlb.walker.requestOrigin_Completed::Data            0                       # Table walker requests started/completed, data/inst
system.cpu.dtb.stage2_mmu.stage2_tlb.walker.requestOrigin_Completed::Inst            0                       # Table walker requests started/completed, data/inst
system.cpu.dtb.stage2_mmu.stage2_tlb.walker.requestOrigin_Completed::total            0                       # Table walker requests started/completed, data/inst
system.cpu.dtb.stage2_mmu.stage2_tlb.walker.requestOrigin::total            0                       # Table walker requests started/completed, data/inst
system.cpu.dtb.stage2_mmu.stage2_tlb.walker.power_state.pwrStateResidencyTicks::UNDEFINED 114637505271                       # Cumulative time (in ticks) in various power states
system.cpu.dtb.walker.walks                         0                       # Table walker walks requested
system.cpu.dtb.walker.requestOrigin_Requested::Data            0                       # Table walker requests started/completed, data/inst
system.cpu.dtb.walker.requestOrigin_Requested::Inst            0                       # Table walker requests started/completed, data/inst
system.cpu.dtb.walker.requestOrigin_Requested::total            0                       # Table walker requests started/completed, data/inst
system.cpu.dtb.walker.requestOrigin_Completed::Data            0                       # Table walker requests started/completed, data/inst
system.cpu.dtb.walker.requestOrigin_Completed::Inst            0                       # Table walker requests started/completed, data/inst
system.cpu.dtb.walker.requestOrigin_Completed::total            0                       # Table walker requests started/completed, data/inst
system.cpu.dtb.walker.requestOrigin::total            0                       # Table walker requests started/completed, data/inst
system.cpu.dtb.walker.power_state.pwrStateResidencyTicks::UNDEFINED 114637505271                       # Cumulative time (in ticks) in various power states
system.cpu.icache.demand_hits::.cpu.inst           24                       # number of demand (read+write) hits
system.cpu.icache.demand_hits::.switch_cpus.inst       189268                       # number of demand (read+write) hits
system.cpu.icache.demand_hits::total           189292                       # number of demand (read+write) hits
system.cpu.icache.overall_hits::.cpu.inst           24                       # number of overall hits
system.cpu.icache.overall_hits::.switch_cpus.inst       189268                       # number of overall hits
system.cpu.icache.overall_hits::total          189292                       # number of overall hits
system.cpu.icache.demand_misses::.cpu.inst            4                       # number of demand (read+write) misses
system.cpu.icache.demand_misses::.switch_cpus.inst           88                       # number of demand (read+write) misses
system.cpu.icache.demand_misses::total             92                       # number of demand (read+write) misses
system.cpu.icache.overall_misses::.cpu.inst            4                       # number of overall misses
system.cpu.icache.overall_misses::.switch_cpus.inst           88                       # number of overall misses
system.cpu.icache.overall_misses::total            92                       # number of overall misses
system.cpu.icache.demand_miss_latency::.switch_cpus.inst      5291386                       # number of demand (read+write) miss cycles
system.cpu.icache.demand_miss_latency::total      5291386                       # number of demand (read+write) miss cycles
system.cpu.icache.overall_miss_latency::.switch_cpus.inst      5291386                       # number of overall miss cycles
system.cpu.icache.overall_miss_latency::total      5291386                       # number of overall miss cycles
system.cpu.icache.demand_accesses::.cpu.inst           28                       # number of demand (read+write) accesses
system.cpu.icache.demand_accesses::.switch_cpus.inst       189356                       # number of demand (read+write) accesses
system.cpu.icache.demand_accesses::total       189384                       # number of demand (read+write) accesses
system.cpu.icache.overall_accesses::.cpu.inst           28                       # number of overall (read+write) accesses
system.cpu.icache.overall_accesses::.switch_cpus.inst       189356                       # number of overall (read+write) accesses
system.cpu.icache.overall_accesses::total       189384                       # number of overall (read+write) accesses
system.cpu.icache.demand_miss_rate::.cpu.inst     0.142857                       # miss rate for demand accesses
system.cpu.icache.demand_miss_rate::.switch_cpus.inst     0.000465                       # miss rate for demand accesses
system.cpu.icache.demand_miss_rate::total     0.000486                       # miss rate for demand accesses
system.cpu.icache.overall_miss_rate::.cpu.inst     0.142857                       # miss rate for overall accesses
system.cpu.icache.overall_miss_rate::.switch_cpus.inst     0.000465                       # miss rate for overall accesses
system.cpu.icache.overall_miss_rate::total     0.000486                       # miss rate for overall accesses
system.cpu.icache.demand_avg_miss_latency::.switch_cpus.inst 60129.386364                       # average overall miss latency
system.cpu.icache.demand_avg_miss_latency::total 57515.065217                       # average overall miss latency
system.cpu.icache.overall_avg_miss_latency::.switch_cpus.inst 60129.386364                       # average overall miss latency
system.cpu.icache.overall_avg_miss_latency::total 57515.065217                       # average overall miss latency
system.cpu.icache.blocked_cycles::no_mshrs            0                       # number of cycles access was blocked
system.cpu.icache.blocked_cycles::no_targets            0                       # number of cycles access was blocked
system.cpu.icache.blocked::no_mshrs                 0                       # number of cycles access was blocked
system.cpu.icache.blocked::no_targets               0                       # number of cycles access was blocked
system.cpu.icache.avg_blocked_cycles::no_mshrs          nan                       # average number of cycles each access was blocked
system.cpu.icache.avg_blocked_cycles::no_targets          nan                       # average number of cycles each access was blocked
system.cpu.icache.demand_mshr_hits::.switch_cpus.inst           47                       # number of demand (read+write) MSHR hits
system.cpu.icache.demand_mshr_hits::total           47                       # number of demand (read+write) MSHR hits
system.cpu.icache.overall_mshr_hits::.switch_cpus.inst           47                       # number of overall MSHR hits
system.cpu.icache.overall_mshr_hits::total           47                       # number of overall MSHR hits
system.cpu.icache.demand_mshr_misses::.switch_cpus.inst           41                       # number of demand (read+write) MSHR misses
system.cpu.icache.demand_mshr_misses::total           41                       # number of demand (read+write) MSHR misses
system.cpu.icache.overall_mshr_misses::.switch_cpus.inst           41                       # number of overall MSHR misses
system.cpu.icache.overall_mshr_misses::total           41                       # number of overall MSHR misses
system.cpu.icache.demand_mshr_miss_latency::.switch_cpus.inst      2938331                       # number of demand (read+write) MSHR miss cycles
system.cpu.icache.demand_mshr_miss_latency::total      2938331                       # number of demand (read+write) MSHR miss cycles
system.cpu.icache.overall_mshr_miss_latency::.switch_cpus.inst      2938331                       # number of overall MSHR miss cycles
system.cpu.icache.overall_mshr_miss_latency::total      2938331                       # number of overall MSHR miss cycles
system.cpu.icache.demand_mshr_miss_rate::.switch_cpus.inst     0.000217                       # mshr miss rate for demand accesses
system.cpu.icache.demand_mshr_miss_rate::total     0.000216                       # mshr miss rate for demand accesses
system.cpu.icache.overall_mshr_miss_rate::.switch_cpus.inst     0.000217                       # mshr miss rate for overall accesses
system.cpu.icache.overall_mshr_miss_rate::total     0.000216                       # mshr miss rate for overall accesses
system.cpu.icache.demand_avg_mshr_miss_latency::.switch_cpus.inst 71666.609756                       # average overall mshr miss latency
system.cpu.icache.demand_avg_mshr_miss_latency::total 71666.609756                       # average overall mshr miss latency
system.cpu.icache.overall_avg_mshr_miss_latency::.switch_cpus.inst 71666.609756                       # average overall mshr miss latency
system.cpu.icache.overall_avg_mshr_miss_latency::total 71666.609756                       # average overall mshr miss latency
system.cpu.icache.replacements                      0                       # number of replacements
system.cpu.icache.ReadReq_hits::.cpu.inst           24                       # number of ReadReq hits
system.cpu.icache.ReadReq_hits::.switch_cpus.inst       189268                       # number of ReadReq hits
system.cpu.icache.ReadReq_hits::total          189292                       # number of ReadReq hits
system.cpu.icache.ReadReq_misses::.cpu.inst            4                       # number of ReadReq misses
system.cpu.icache.ReadReq_misses::.switch_cpus.inst           88                       # number of ReadReq misses
system.cpu.icache.ReadReq_misses::total            92                       # number of ReadReq misses
system.cpu.icache.ReadReq_miss_latency::.switch_cpus.inst      5291386                       # number of ReadReq miss cycles
system.cpu.icache.ReadReq_miss_latency::total      5291386                       # number of ReadReq miss cycles
system.cpu.icache.ReadReq_accesses::.cpu.inst           28                       # number of ReadReq accesses(hits+misses)
system.cpu.icache.ReadReq_accesses::.switch_cpus.inst       189356                       # number of ReadReq accesses(hits+misses)
system.cpu.icache.ReadReq_accesses::total       189384                       # number of ReadReq accesses(hits+misses)
system.cpu.icache.ReadReq_miss_rate::.cpu.inst     0.142857                       # miss rate for ReadReq accesses
system.cpu.icache.ReadReq_miss_rate::.switch_cpus.inst     0.000465                       # miss rate for ReadReq accesses
system.cpu.icache.ReadReq_miss_rate::total     0.000486                       # miss rate for ReadReq accesses
system.cpu.icache.ReadReq_avg_miss_latency::.switch_cpus.inst 60129.386364                       # average ReadReq miss latency
system.cpu.icache.ReadReq_avg_miss_latency::total 57515.065217                       # average ReadReq miss latency
system.cpu.icache.ReadReq_mshr_hits::.switch_cpus.inst           47                       # number of ReadReq MSHR hits
system.cpu.icache.ReadReq_mshr_hits::total           47                       # number of ReadReq MSHR hits
system.cpu.icache.ReadReq_mshr_misses::.switch_cpus.inst           41                       # number of ReadReq MSHR misses
system.cpu.icache.ReadReq_mshr_misses::total           41                       # number of ReadReq MSHR misses
system.cpu.icache.ReadReq_mshr_miss_latency::.switch_cpus.inst      2938331                       # number of ReadReq MSHR miss cycles
system.cpu.icache.ReadReq_mshr_miss_latency::total      2938331                       # number of ReadReq MSHR miss cycles
system.cpu.icache.ReadReq_mshr_miss_rate::.switch_cpus.inst     0.000217                       # mshr miss rate for ReadReq accesses
system.cpu.icache.ReadReq_mshr_miss_rate::total     0.000216                       # mshr miss rate for ReadReq accesses
system.cpu.icache.ReadReq_avg_mshr_miss_latency::.switch_cpus.inst 71666.609756                       # average ReadReq mshr miss latency
system.cpu.icache.ReadReq_avg_mshr_miss_latency::total 71666.609756                       # average ReadReq mshr miss latency
system.cpu.icache.power_state.pwrStateResidencyTicks::UNDEFINED 114637505271                       # Cumulative time (in ticks) in various power states
system.cpu.icache.tags.tagsinuse            44.630382                       # Cycle average of tags in use
system.cpu.icache.tags.total_refs                   0                       # Total number of references to valid blocks.
system.cpu.icache.tags.sampled_refs                 0                       # Sample count of references to valid blocks.
system.cpu.icache.tags.avg_refs                   nan                       # Average number of references to valid blocks.
system.cpu.icache.tags.warmup_cycle      114456256405                       # Cycle when the warmup percentage was hit.
system.cpu.icache.tags.occ_blocks::.cpu.inst     3.999913                       # Average occupied blocks per requestor
system.cpu.icache.tags.occ_blocks::.switch_cpus.inst    40.630470                       # Average occupied blocks per requestor
system.cpu.icache.tags.occ_percent::.cpu.inst     0.007812                       # Average percentage of cache occupancy
system.cpu.icache.tags.occ_percent::.switch_cpus.inst     0.079356                       # Average percentage of cache occupancy
system.cpu.icache.tags.occ_percent::total     0.087169                       # Average percentage of cache occupancy
system.cpu.icache.tags.occ_task_id_blocks::1024           45                       # Occupied blocks per task id
system.cpu.icache.tags.age_task_id_blocks_1024::2           45                       # Occupied blocks per task id
system.cpu.icache.tags.occ_task_id_percent::1024     0.087891                       # Percentage of cache occupancy per task id
system.cpu.icache.tags.tag_accesses           1515117                       # Number of tag accesses
system.cpu.icache.tags.data_accesses          1515117                       # Number of data accesses
system.cpu.icache.tags.power_state.pwrStateResidencyTicks::UNDEFINED 114637505271                       # Cumulative time (in ticks) in various power states
system.cpu.itb.instHits                             0                       # ITB inst hits
system.cpu.itb.instMisses                           0                       # ITB inst misses
system.cpu.itb.readHits                             0                       # DTB read hits
system.cpu.itb.readMisses                           0                       # DTB read misses
system.cpu.itb.writeHits                            0                       # DTB write hits
system.cpu.itb.writeMisses                          0                       # DTB write misses
system.cpu.itb.inserts                              0                       # Number of times an entry is inserted into the TLB
system.cpu.itb.flushTlb                             2                       # Number of times complete TLB was flushed
system.cpu.itb.flushTlbMva                          0                       # Number of times TLB was flushed by MVA
system.cpu.itb.flushTlbMvaAsid                      0                       # Number of times TLB was flushed by MVA & ASID
system.cpu.itb.flushTlbAsid                         0                       # Number of times TLB was flushed by ASID
system.cpu.itb.flushedEntries                       0                       # Number of entries that have been flushed from TLB
system.cpu.itb.alignFaults                          0                       # Number of TLB faults due to alignment restrictions
system.cpu.itb.prefetchFaults                       0                       # Number of TLB faults due to prefetch
system.cpu.itb.domainFaults                         0                       # Number of TLB faults due to domain restrictions
system.cpu.itb.permsFaults                          0                       # Number of TLB faults due to permissions restrictions
system.cpu.itb.readAccesses                         0                       # DTB read accesses
system.cpu.itb.writeAccesses                        0                       # DTB write accesses
system.cpu.itb.instAccesses                         0                       # ITB inst accesses
system.cpu.itb.hits                                 0                       # Total TLB (inst and data) hits
system.cpu.itb.misses                               0                       # Total TLB (inst and data) misses
system.cpu.itb.accesses                             0                       # Total TLB (inst and data) accesses
system.cpu.itb.stage2_mmu.stage2_tlb.instHits            0                       # ITB inst hits
system.cpu.itb.stage2_mmu.stage2_tlb.instMisses            0                       # ITB inst misses
system.cpu.itb.stage2_mmu.stage2_tlb.readHits            0                       # DTB read hits
system.cpu.itb.stage2_mmu.stage2_tlb.readMisses            0                       # DTB read misses
system.cpu.itb.stage2_mmu.stage2_tlb.writeHits            0                       # DTB write hits
system.cpu.itb.stage2_mmu.stage2_tlb.writeMisses            0                       # DTB write misses
system.cpu.itb.stage2_mmu.stage2_tlb.inserts            0                       # Number of times an entry is inserted into the TLB
system.cpu.itb.stage2_mmu.stage2_tlb.flushTlb            0                       # Number of times complete TLB was flushed
system.cpu.itb.stage2_mmu.stage2_tlb.flushTlbMva            0                       # Number of times TLB was flushed by MVA
system.cpu.itb.stage2_mmu.stage2_tlb.flushTlbMvaAsid            0                       # Number of times TLB was flushed by MVA & ASID
system.cpu.itb.stage2_mmu.stage2_tlb.flushTlbAsid            0                       # Number of times TLB was flushed by ASID
system.cpu.itb.stage2_mmu.stage2_tlb.flushedEntries            0                       # Number of entries that have been flushed from TLB
system.cpu.itb.stage2_mmu.stage2_tlb.alignFaults            0                       # Number of TLB faults due to alignment restrictions
system.cpu.itb.stage2_mmu.stage2_tlb.prefetchFaults            0                       # Number of TLB faults due to prefetch
system.cpu.itb.stage2_mmu.stage2_tlb.domainFaults            0                       # Number of TLB faults due to domain restrictions
system.cpu.itb.stage2_mmu.stage2_tlb.permsFaults            0                       # Number of TLB faults due to permissions restrictions
system.cpu.itb.stage2_mmu.stage2_tlb.readAccesses            0                       # DTB read accesses
system.cpu.itb.stage2_mmu.stage2_tlb.writeAccesses            0                       # DTB write accesses
system.cpu.itb.stage2_mmu.stage2_tlb.instAccesses            0                       # ITB inst accesses
system.cpu.itb.stage2_mmu.stage2_tlb.hits            0                       # Total TLB (inst and data) hits
system.cpu.itb.stage2_mmu.stage2_tlb.misses            0                       # Total TLB (inst and data) misses
system.cpu.itb.stage2_mmu.stage2_tlb.accesses            0                       # Total TLB (inst and data) accesses
system.cpu.itb.stage2_mmu.stage2_tlb.walker.walks            0                       # Table walker walks requested
system.cpu.itb.stage2_mmu.stage2_tlb.walker.requestOrigin_Requested::Data            0                       # Table walker requests started/completed, data/inst
system.cpu.itb.stage2_mmu.stage2_tlb.walker.requestOrigin_Requested::Inst            0                       # Table walker requests started/completed, data/inst
system.cpu.itb.stage2_mmu.stage2_tlb.walker.requestOrigin_Requested::total            0                       # Table walker requests started/completed, data/inst
system.cpu.itb.stage2_mmu.stage2_tlb.walker.requestOrigin_Completed::Data            0                       # Table walker requests started/completed, data/inst
system.cpu.itb.stage2_mmu.stage2_tlb.walker.requestOrigin_Completed::Inst            0                       # Table walker requests started/completed, data/inst
system.cpu.itb.stage2_mmu.stage2_tlb.walker.requestOrigin_Completed::total            0                       # Table walker requests started/completed, data/inst
system.cpu.itb.stage2_mmu.stage2_tlb.walker.requestOrigin::total            0                       # Table walker requests started/completed, data/inst
system.cpu.itb.stage2_mmu.stage2_tlb.walker.power_state.pwrStateResidencyTicks::UNDEFINED 114637505271                       # Cumulative time (in ticks) in various power states
system.cpu.itb.walker.walks                         0                       # Table walker walks requested
system.cpu.itb.walker.requestOrigin_Requested::Data            0                       # Table walker requests started/completed, data/inst
system.cpu.itb.walker.requestOrigin_Requested::Inst            0                       # Table walker requests started/completed, data/inst
system.cpu.itb.walker.requestOrigin_Requested::total            0                       # Table walker requests started/completed, data/inst
system.cpu.itb.walker.requestOrigin_Completed::Data            0                       # Table walker requests started/completed, data/inst
system.cpu.itb.walker.requestOrigin_Completed::Inst            0                       # Table walker requests started/completed, data/inst
system.cpu.itb.walker.requestOrigin_Completed::total            0                       # Table walker requests started/completed, data/inst
system.cpu.itb.walker.requestOrigin::total            0                       # Table walker requests started/completed, data/inst
system.cpu.itb.walker.power_state.pwrStateResidencyTicks::UNDEFINED 114637505271                       # Cumulative time (in ticks) in various power states
system.cpu.power_state.numTransitions               1                       # Number of power state transitions
system.cpu.power_state.pwrStateResidencyTicks::ON 114456266000                       # Cumulative time (in ticks) in various power states
system.cpu.power_state.pwrStateResidencyTicks::OFF    181239271                       # Cumulative time (in ticks) in various power states
system.cpu.thread_0.numInsts                        0                       # Number of Instructions committed
system.cpu.thread_0.numOps                          0                       # Number of Ops committed
system.cpu.thread_0.numMemRefs                      0                       # Number of Memory References
system.cpu_clk_domain.clock                       323                       # Clock period in ticks
system.cpu_voltage_domain.voltage                   1                       # Voltage in Volts
system.l2.demand_hits::.switch_cpus.data           32                       # number of demand (read+write) hits
system.l2.demand_hits::total                       32                       # number of demand (read+write) hits
system.l2.overall_hits::.switch_cpus.data           32                       # number of overall hits
system.l2.overall_hits::total                      32                       # number of overall hits
system.l2.demand_misses::.cpu.inst                  4                       # number of demand (read+write) misses
system.l2.demand_misses::.cpu.data                  3                       # number of demand (read+write) misses
system.l2.demand_misses::.switch_cpus.inst           41                       # number of demand (read+write) misses
system.l2.demand_misses::.switch_cpus.data          108                       # number of demand (read+write) misses
system.l2.demand_misses::total                    156                       # number of demand (read+write) misses
system.l2.overall_misses::.cpu.inst                 4                       # number of overall misses
system.l2.overall_misses::.cpu.data                 3                       # number of overall misses
[...]
system.switch_cpus.dtb.walker.walks                 0                       # Table walker walks requested
system.switch_cpus.dtb.walker.requestOrigin_Requested::Data            0                       # Table walker requests started/completed, data/inst
system.switch_cpus.dtb.walker.requestOrigin_Requested::Inst            0                       # Table walker requests started/completed, data/inst
system.switch_cpus.dtb.walker.requestOrigin_Requested::total            0                       # Table walker requests started/completed, data/inst
system.switch_cpus.dtb.walker.requestOrigin_Completed::Data            0                       # Table walker requests started/completed, data/inst
system.switch_cpus.dtb.walker.requestOrigin_Completed::Inst            0                       # Table walker requests started/completed, data/inst
system.switch_cpus.dtb.walker.requestOrigin_Completed::total            0                       # Table walker requests started/completed, data/inst
system.switch_cpus.dtb.walker.requestOrigin::total            0                       # Table walker requests started/completed, data/inst
system.switch_cpus.dtb.walker.power_state.pwrStateResidencyTicks::UNDEFINED   1519196908                       # Cumulative time (in ticks) in various power states
system.switch_cpus.fetch.icacheStallCycles      1768586                       # Number of cycles fetch is stalled on an Icache miss
system.switch_cpus.fetch.insts               12039676                       # Number of instructions fetch has processed
system.switch_cpus.fetch.branches             1408563                       # Number of branches that fetch encountered
system.switch_cpus.fetch.predictedBranches      1366604                       # Number of branches that fetch has predicted taken
system.switch_cpus.fetch.cycles               2908531                       # Number of cycles fetch has run and was not squashing or blocked
system.switch_cpus.fetch.squashCycles           52558                       # Number of cycles fetch has spent squashing
system.switch_cpus.fetch.cacheLines           1752510                       # Number of cache lines fetched
system.switch_cpus.fetch.icacheSquashes         10077                       # Number of outstanding Icache misses that were squashed
system.switch_cpus.fetch.nisnDist::samples      4703396                       # Number of instructions fetched each cycle (Total)
system.switch_cpus.fetch.nisnDist::mean      2.850073                       # Number of instructions fetched each cycle (Total)
system.switch_cpus.fetch.nisnDist::stdev     3.115297                       # Number of instructions fetched each cycle (Total)
system.switch_cpus.fetch.nisnDist::underflows            0      0.00%      0.00% # Number of instructions fetched each cycle (Total)
system.switch_cpus.fetch.nisnDist::0          2018534     42.92%     42.92% # Number of instructions fetched each cycle (Total)
system.switch_cpus.fetch.nisnDist::1           230610      4.90%     47.82% # Number of instructions fetched each cycle (Total)
system.switch_cpus.fetch.nisnDist::2           351953      7.48%     55.30% # Number of instructions fetched each cycle (Total)
system.switch_cpus.fetch.nisnDist::3           282270      6.00%     61.30% # Number of instructions fetched each cycle (Total)
system.switch_cpus.fetch.nisnDist::4           508897     10.82%     72.12% # Number of instructions fetched each cycle (Total)
system.switch_cpus.fetch.nisnDist::5           109525      2.33%     74.45% # Number of instructions fetched each cycle (Total)
system.switch_cpus.fetch.nisnDist::6           237763      5.06%     79.51% # Number of instructions fetched each cycle (Total)
system.switch_cpus.fetch.nisnDist::7            96849      2.06%     81.57% # Number of instructions fetched each cycle (Total)
system.switch_cpus.fetch.nisnDist::8           866995     18.43%    100.00% # Number of instructions fetched each cycle (Total)
system.switch_cpus.fetch.nisnDist::overflows            0      0.00%    100.00% # Number of instructions fetched each cycle (Total)
system.switch_cpus.fetch.nisnDist::min_value            0                       # Number of instructions fetched each cycle (Total)
system.switch_cpus.fetch.nisnDist::max_value            8                       # Number of instructions fetched each cycle (Total)
system.switch_cpus.fetch.nisnDist::total      4703396                       # Number of instructions fetched each cycle (Total)
system.switch_cpus.fetch.branchRate          0.299478                       # Number of branch fetches per cycle
system.switch_cpus.fetch.rate                2.559784                       # Number of inst fetches per cycle
system.switch_cpus.itb.instHits                     0                       # ITB inst hits
system.switch_cpus.itb.instMisses                   0                       # ITB inst misses
system.switch_cpus.itb.readHits                     0                       # DTB read hits
system.switch_cpus.itb.readMisses                   0                       # DTB read misses
system.switch_cpus.itb.writeHits                    0                       # DTB write hits
system.switch_cpus.itb.writeMisses                  0                       # DTB write misses
system.switch_cpus.itb.inserts                      0                       # Number of times an entry is inserted into the TLB
system.switch_cpus.itb.flushTlb                     0                       # Number of times complete TLB was flushed
system.switch_cpus.itb.flushTlbMva                  0                       # Number of times TLB was flushed by MVA
system.switch_cpus.itb.flushTlbMvaAsid              0                       # Number of times TLB was flushed by MVA & ASID
system.switch_cpus.itb.flushTlbAsid                 0                       # Number of times TLB was flushed by ASID
system.switch_cpus.itb.flushedEntries               0                       # Number of entries that have been flushed from TLB
system.switch_cpus.itb.alignFaults                  0                       # Number of TLB faults due to alignment restrictions
system.switch_cpus.itb.prefetchFaults               0                       # Number of TLB faults due to prefetch
system.switch_cpus.itb.domainFaults                 0                       # Number of TLB faults due to domain restrictions
system.switch_cpus.itb.permsFaults                  0                       # Number of TLB faults due to permissions restrictions
system.switch_cpus.itb.readAccesses                 0                       # DTB read accesses
system.switch_cpus.itb.writeAccesses                0                       # DTB write accesses
system.switch_cpus.itb.instAccesses                 0                       # ITB inst accesses
system.switch_cpus.itb.hits                         0                       # Total TLB (inst and data) hits
system.switch_cpus.itb.misses                       0                       # Total TLB (inst and data) misses
system.switch_cpus.itb.accesses                     0                       # Total TLB (inst and data) accesses
system.switch_cpus.itb.stage2_mmu.stage2_tlb.instHits            0                       # ITB inst hits
system.switch_cpus.itb.stage2_mmu.stage2_tlb.instMisses            0                       # ITB inst misses
system.switch_cpus.itb.stage2_mmu.stage2_tlb.readHits            0                       # DTB read hits
system.switch_cpus.itb.stage2_mmu.stage2_tlb.readMisses            0                       # DTB read misses
system.switch_cpus.itb.stage2_mmu.stage2_tlb.writeHits            0                       # DTB write hits
system.switch_cpus.itb.stage2_mmu.stage2_tlb.writeMisses            0                       # DTB write misses
system.switch_cpus.itb.stage2_mmu.stage2_tlb.inserts            0                       # Number of times an entry is inserted into the TLB
system.switch_cpus.itb.stage2_mmu.stage2_tlb.flushTlb            0                       # Number of times complete TLB was flushed
system.switch_cpus.itb.stage2_mmu.stage2_tlb.flushTlbMva            0                       # Number of times TLB was flushed by MVA
system.switch_cpus.itb.stage2_mmu.stage2_tlb.flushTlbMvaAsid            0                       # Number of times TLB was flushed by MVA & ASID
system.switch_cpus.itb.stage2_mmu.stage2_tlb.flushTlbAsid            0                       # Number of times TLB was flushed by ASID
system.switch_cpus.itb.stage2_mmu.stage2_tlb.flushedEntries            0                       # Number of entries that have been flushed from TLB
system.switch_cpus.itb.stage2_mmu.stage2_tlb.alignFaults            0                       # Number of TLB faults due to alignment restrictions
system.switch_cpus.itb.stage2_mmu.stage2_tlb.prefetchFaults            0                       # Number of TLB faults due to prefetch
system.switch_cpus.itb.stage2_mmu.stage2_tlb.domainFaults            0                       # Number of TLB faults due to domain restrictions
system.switch_cpus.itb.stage2_mmu.stage2_tlb.permsFaults            0                       # Number of TLB faults due to permissions restrictions
system.switch_cpus.itb.stage2_mmu.stage2_tlb.readAccesses            0                       # DTB read accesses
system.switch_cpus.itb.stage2_mmu.stage2_tlb.writeAccesses            0                       # DTB write accesses
system.switch_cpus.itb.stage2_mmu.stage2_tlb.instAccesses            0                       # ITB inst accesses
system.switch_cpus.itb.stage2_mmu.stage2_tlb.hits            0                       # Total TLB (inst and data) hits
system.switch_cpus.itb.stage2_mmu.stage2_tlb.misses            0                       # Total TLB (inst and data) misses
system.switch_cpus.itb.stage2_mmu.stage2_tlb.accesses            0                       # Total TLB (inst and data) accesses
system.switch_cpus.itb.stage2_mmu.stage2_tlb.walker.walks            0                       # Table walker walks requested
system.switch_cpus.itb.stage2_mmu.stage2_tlb.walker.requestOrigin_Requested::Data            0                       # Table walker requests started/completed, data/inst
system.switch_cpus.itb.stage2_mmu.stage2_tlb.walker.requestOrigin_Requested::Inst            0                       # Table walker requests started/completed, data/inst
system.switch_cpus.itb.stage2_mmu.stage2_tlb.walker.requestOrigin_Requested::total            0                       # Table walker requests started/completed, data/inst
system.switch_cpus.itb.stage2_mmu.stage2_tlb.walker.requestOrigin_Completed::Data            0                       # Table walker requests started/completed, data/inst
system.switch_cpus.itb.stage2_mmu.stage2_tlb.walker.requestOrigin_Completed::Inst            0                       # Table walker requests started/completed, data/inst
system.switch_cpus.itb.stage2_mmu.stage2_tlb.walker.requestOrigin_Completed::total            0                       # Table walker requests started/completed, data/inst
system.switch_cpus.itb.stage2_mmu.stage2_tlb.walker.requestOrigin::total            0                       # Table walker requests started/completed, data/inst
system.switch_cpus.itb.stage2_mmu.stage2_tlb.walker.power_state.pwrStateResidencyTicks::UNDEFINED   1519196908                       # Cumulative time (in ticks) in various power states
system.switch_cpus.itb.walker.walks                 0                       # Table walker walks requested
system.switch_cpus.itb.walker.requestOrigin_Requested::Data            0                       # Table walker requests started/completed, data/inst
system.switch_cpus.itb.walker.requestOrigin_Requested::Inst            0                       # Table walker requests started/completed, data/inst
system.switch_cpus.itb.walker.requestOrigin_Requested::total            0                       # Table walker requests started/completed, data/inst
system.switch_cpus.itb.walker.requestOrigin_Completed::Data            0                       # Table walker requests started/completed, data/inst
system.switch_cpus.itb.walker.requestOrigin_Completed::Inst            0                       # Table walker requests started/completed, data/inst
system.switch_cpus.itb.walker.requestOrigin_Completed::total            0                       # Table walker requests started/completed, data/inst
system.switch_cpus.itb.walker.requestOrigin::total            0                       # Table walker requests started/completed, data/inst
system.switch_cpus.itb.walker.power_state.pwrStateResidencyTicks::UNDEFINED   1519196908                       # Cumulative time (in ticks) in various power states
system.switch_cpus.lsq0.forwLoads             1624070                       # Number of loads that had data forwarded from stores
system.switch_cpus.lsq0.squashedLoads          515218                       # Number of loads squashed
system.switch_cpus.lsq0.ignoredResponses          903                       # Number of memory responses ignored because the instruction is squashed
system.switch_cpus.lsq0.memOrderViolation         1461                       # Number of memory ordering violations
system.switch_cpus.lsq0.squashedStores         392773                       # Number of stores squashed
system.switch_cpus.lsq0.rescheduledLoads       151159                       # Number of loads that were rescheduled
system.switch_cpus.lsq0.blockedByCache              0                       # Number of times an access to memory failed due to the cache being blocked
system.switch_cpus.power_state.pwrStateResidencyTicks::OFF   1519196908                       # Cumulative time (in ticks) in various power states
system.switch_cpus.rename.squashCycles          26278                       # Number of cycles rename is squashing
system.switch_cpus.rename.idleCycles          1367931                       # Number of cycles rename is idle
system.switch_cpus.rename.blockCycles          263293                       # Number of cycles rename is blocking
system.switch_cpus.rename.serializeStallCycles          216                       # count of cycles rename stalledfor serializing inst
system.switch_cpus.rename.runCycles           2178304                       # Number of cycles rename is running
system.switch_cpus.rename.unblockCycles        867374                       # Number of cycles rename is unblocking
system.switch_cpus.rename.renamedInsts       13026654                       # Number of instructions processed by rename
system.switch_cpus.rename.IQFullEvents         211300                       # Number of times rename has blocked due to IQ full
system.switch_cpus.rename.LQFullEvents         545867                       # Number of times rename has blocked due to LQ full
system.switch_cpus.rename.SQFullEvents          74000                       # Number of times rename has blocked due to SQ full
system.switch_cpus.rename.renamedOperands     12143028                       # Number of destination operands rename has renamed
system.switch_cpus.rename.lookups            18643617                       # Number of register rename lookups that rename has made
system.switch_cpus.rename.intLookups         16513263                       # Number of integer rename lookups
system.switch_cpus.rename.committedMaps      10443813                       # Number of HB maps that are committed
system.switch_cpus.rename.undoneMaps          1699213                       # Number of HB maps that are undone due to squashing
system.switch_cpus.rename.serializing              31                       # count of serializing insts renamed
system.switch_cpus.rename.tempSerializing            0                       # count of temporary serializing insts renamed
system.switch_cpus.rename.skidInsts           1265217                       # count of insts added to the skid buffer
system.switch_cpus.rob.reads                 16686777                       # The number of ROB reads
system.switch_cpus.rob.writes                26040777                       # The number of ROB writes
system.switch_cpus.thread_0.numInsts         10000005                       # Number of Instructions committed
system.switch_cpus.thread_0.numOps           11052047                       # Number of Ops committed
system.switch_cpus.thread_0.numMemRefs              0                       # Number of Memory References
system.tol2bus.trans_dist::ReadResp                40                       # Transaction distribution
system.tol2bus.trans_dist::WritebackDirty          165                       # Transaction distribution
system.tol2bus.trans_dist::CleanEvict               4                       # Transaction distribution
system.tol2bus.trans_dist::HardPFReq              217                       # Transaction distribution
system.tol2bus.trans_dist::ReadExReq              242                       # Transaction distribution
system.tol2bus.trans_dist::ReadExResp             242                       # Transaction distribution
system.tol2bus.trans_dist::ReadSharedReq           40                       # Transaction distribution
system.tol2bus.pkt_count_system.cpu.dcache.mem_side_port::system.l2.cpu_side_port          733                       # Packet count per connected requestor and responder (bytes)
system.tol2bus.pkt_count::total                   733                       # Packet count per connected requestor and responder (bytes)
system.tol2bus.pkt_size_system.cpu.dcache.mem_side_port::system.l2.cpu_side_port        57216                       # Cumulative packet size per connected requestor and responder (bytes)
system.tol2bus.pkt_size::total                  57216                       # Cumulative packet size per connected requestor and responder (bytes)
system.tol2bus.snoops                             217                       # Total snoops (count)
system.tol2bus.snoopTraffic                         0                       # Total snoop traffic (bytes)
system.tol2bus.snoop_fanout::samples              499                       # Request fanout histogram
system.tol2bus.snoop_fanout::mean                   0                       # Request fanout histogram
system.tol2bus.snoop_fanout::stdev                  0                       # Request fanout histogram
system.tol2bus.snoop_fanout::underflows             0      0.00%      0.00% # Request fanout histogram
system.tol2bus.snoop_fanout::0                    499    100.00%    100.00% # Request fanout histogram
system.tol2bus.snoop_fanout::1                      0      0.00%    100.00% # Request fanout histogram
system.tol2bus.snoop_fanout::2                      0      0.00%    100.00% # Request fanout histogram
system.tol2bus.snoop_fanout::overflows              0      0.00%    100.00% # Request fanout histogram
system.tol2bus.snoop_fanout::min_value              0                       # Request fanout histogram
system.tol2bus.snoop_fanout::max_value              0                       # Request fanout histogram
system.tol2bus.snoop_fanout::total                499                       # Request fanout histogram
system.tol2bus.power_state.pwrStateResidencyTicks::UNDEFINED   1519196908                       # Cumulative time (in ticks) in various power states
system.tol2bus.reqLayer0.occupancy             358853                       # Layer occupancy (ticks)
system.tol2bus.reqLayer0.utilization              0.0                       # Layer utilization (%)
system.tol2bus.respLayer1.occupancy            455430                       # Layer occupancy (ticks)
system.tol2bus.respLayer1.utilization             0.0                       # Layer utilization (%)
system.voltage_domain.voltage                       1                       # Voltage in Volts

---------- End Simulation Statistics   ----------
