
---------- Begin Simulation Statistics ----------
final_tick                               101428554400                       # Number of ticks from beginning of simulation (restored from checkpoints and never reset)
host_inst_rate                                 341903                       # Simulator instruction rate (inst/s)
host_mem_usage                               16975248                       # Number of bytes of host memory used
host_op_rate                                   377864                       # Simulator op (including micro ops) rate (op/s)
host_seconds                                     2.92                       # Real time elapsed on the host
host_tick_rate                               78502621                       # Simulator tick rate (ticks/s)
sim_freq                                 1000000000000                       # Frequency of simulated ticks
sim_insts                                     1000028                       # Number of instructions simulated
sim_ops                                       1105230                       # Number of ops (including micro ops) simulated
sim_seconds                                  0.000230                       # Number of seconds simulated
sim_ticks                                   229616400                       # Number of ticks simulated
system.cpu.Branches                                 5                       # Number of branches fetched
system.cpu.committedInsts                          25                       # Number of instructions committed
system.cpu.committedOps                            25                       # Number of ops (including micro ops) committed
system.cpu.idle_fraction                            0                       # Percentage of idle cycles
system.cpu.not_idle_fraction                        1                       # Percentage of non-idle cycles
system.cpu.numCycles                               25                       # number of cpu cycles simulated
system.cpu.numWorkItemsCompleted                    0                       # number of work items this cpu completed
system.cpu.numWorkItemsStarted                      0                       # number of work items this cpu started
system.cpu.num_busy_cycles                         25                       # Number of busy cycles
system.cpu.num_cc_register_reads                   15                       # number of times the CC registers were read
system.cpu.num_cc_register_writes                  15                       # number of times the CC registers were written
system.cpu.num_conditional_control_insts            5                       # number of instructions that are conditional controls
system.cpu.num_fp_alu_accesses                      0                       # Number of float alu accesses
system.cpu.num_fp_insts                             0                       # number of float instructions
system.cpu.num_fp_register_reads                    0                       # number of times the floating registers were read
system.cpu.num_fp_register_writes                   0                       # number of times the floating registers were written
system.cpu.num_func_calls                           0                       # number of times a function call or return occured
system.cpu.num_idle_cycles                          0                       # Number of idle cycles
system.cpu.num_int_alu_accesses                    20                       # Number of integer alu accesses
system.cpu.num_int_insts                           20                       # number of integer instructions
system.cpu.num_int_register_reads                  29                       # number of times the integer registers were read
system.cpu.num_int_register_writes                 16                       # number of times the integer registers were written
system.cpu.num_load_insts                           6                       # Number of load instructions
system.cpu.num_mem_refs                            10                       # number of memory refs
system.cpu.num_store_insts                          4                       # Number of store instructions
system.cpu.num_vec_alu_accesses                     0                       # Number of vector alu accesses
system.cpu.num_vec_insts                            0                       # number of vector instructions
system.cpu.num_vec_register_reads                   0                       # number of times the vector registers were read
system.cpu.num_vec_register_writes                  0                       # number of times the vector registers were written
system.cpu.op_class::No_OpClass                     0      0.00%      0.00% # Class of executed instruction
system.cpu.op_class::IntAlu                        15     60.00%     60.00% # Class of executed instruction
system.cpu.op_class::IntMult                        0      0.00%     60.00% # Class of executed instruction
system.cpu.op_class::IntDiv                         0      0.00%     60.00% # Class of executed instruction
system.cpu.op_class::FloatAdd                       0      0.00%     60.00% # Class of executed instruction
system.cpu.op_class::FloatCmp                       0      0.00%     60.00% # Class of executed instruction
system.cpu.op_class::FloatCvt                       0      0.00%     60.00% # Class of executed instruction
system.cpu.op_class::FloatMult                      0      0.00%     60.00% # Class of executed instruction
system.cpu.op_class::FloatMultAcc                   0      0.00%     60.00% # Class of executed instruction
system.cpu.op_class::FloatDiv                       0      0.00%     60.00% # Class of executed instruction
system.cpu.op_class::FloatMisc                      0      0.00%     60.00% # Class of executed instruction
system.cpu.op_class::FloatSqrt                      0      0.00%     60.00% # Class of executed instruction
system.cpu.op_class::SimdAdd                        0      0.00%     60.00% # Class of executed instruction
system.cpu.op_class::SimdAddAcc                     0      0.00%     60.00% # Class of executed instruction
system.cpu.op_class::SimdAlu                        0      0.00%     60.00% # Class of executed instruction
system.cpu.op_class::SimdCmp                        0      0.00%     60.00% # Class of executed instruction
system.cpu.op_class::SimdCvt                        0      0.00%     60.00% # Class of executed instruction
system.cpu.op_class::SimdMisc                       0      0.00%     60.00% # Class of executed instruction
system.cpu.op_class::SimdMult                       0      0.00%     60.00% # Class of executed instruction
system.cpu.op_class::SimdMultAcc                    0      0.00%     60.00% # Class of executed instruction
system.cpu.op_class::SimdShift                      0      0.00%     60.00% # Class of executed instruction
system.cpu.op_class::SimdShiftAcc                   0      0.00%     60.00% # Class of executed instruction
system.cpu.op_class::SimdDiv                        0      0.00%     60.00% # Class of executed instruction
system.cpu.op_class::SimdSqrt                       0      0.00%     60.00% # Class of executed instruction
system.cpu.op_class::SimdFloatAdd                   0      0.00%     60.00% # Class of executed instruction
system.cpu.op_class::SimdFloatAlu                   0      0.00%     60.00% # Class of executed instruction
system.cpu.op_class::SimdFloatCmp                   0      0.00%     60.00% # Class of executed instruction
system.cpu.op_class::SimdFloatCvt                   0      0.00%     60.00% # Class of executed instruction
system.cpu.op_class::SimdFloatDiv                   0      0.00%     60.00% # Class of executed instruction
system.cpu.op_class::SimdFloatMisc                  0      0.00%     60.00% # Class of executed instruction
system.cpu.op_class::SimdFloatMult                  0      0.00%     60.00% # Class of executed instruction
system.cpu.op_class::SimdFloatMultAcc               0      0.00%     60.00% # Class of executed instruction
system.cpu.op_class::SimdFloatSqrt                  0      0.00%     60.00% # Class of executed instruction
system.cpu.op_class::SimdReduceAdd                  0      0.00%     60.00% # Class of executed instruction
system.cpu.op_class::SimdReduceAlu                  0      0.00%     60.00% # Class of executed instruction
system.cpu.op_class::SimdReduceCmp                  0      0.00%     60.00% # Class of executed instruction
system.cpu.op_class::SimdFloatReduceAdd             0      0.00%     60.00% # Class of executed instruction
system.cpu.op_class::SimdFloatReduceCmp             0      0.00%     60.00% # Class of executed instruction
system.cpu.op_class::SimdAes                        0      0.00%     60.00% # Class of executed instruction
system.cpu.op_class::SimdAesMix                     0      0.00%     60.00% # Class of executed instruction
system.cpu.op_class::SimdSha1Hash                   0      0.00%     60.00% # Class of executed instruction
system.cpu.op_class::SimdSha1Hash2                  0      0.00%     60.00% # Class of executed instruction
system.cpu.op_class::SimdSha256Hash                 0      0.00%     60.00% # Class of executed instruction
system.cpu.op_class::SimdSha256Hash2                0      0.00%     60.00% # Class of executed instruction
system.cpu.op_class::SimdShaSigma2                  0      0.00%     60.00% # Class of executed instruction
system.cpu.op_class::SimdShaSigma3                  0      0.00%     60.00% # Class of executed instruction
system.cpu.op_class::SimdPredAlu                    0      0.00%     60.00% # Class of executed instruction
system.cpu.op_class::MemRead                        6     24.00%     84.00% # Class of executed instruction
system.cpu.op_class::MemWrite                       4     16.00%    100.00% # Class of executed instruction
system.cpu.op_class::FloatMemRead                   0      0.00%    100.00% # Class of executed instruction
system.cpu.op_class::FloatMemWrite                  0      0.00%    100.00% # Class of executed instruction
system.cpu.op_class::IprAccess                      0      0.00%    100.00% # Class of executed instruction
system.cpu.op_class::InstPrefetch                   0      0.00%    100.00% # Class of executed instruction
system.cpu.op_class::total                         25                       # Class of executed instruction
system.cpu.workload.numSyscalls                     0                       # Number of system calls
system.membus.snoop_filter.hit_multi_requests            0                       # Number of requests hitting in the snoop filter with multiple (>1) holders of the requested data.
system.membus.snoop_filter.hit_multi_snoops            0                       # Number of snoops hitting in the snoop filter with multiple (>1) holders of the requested data.
system.membus.snoop_filter.hit_single_requests            0                       # Number of requests hitting in the snoop filter with a single holder of the requested data.
system.membus.snoop_filter.hit_single_snoops            0                       # Number of snoops hitting in the snoop filter with a single holder of the requested data.
system.membus.snoop_filter.tot_requests           203                       # Total number of requests made to the snoop filter.
system.membus.snoop_filter.tot_snoops               0                       # Total number of snoops made to the snoop filter.
system.switch_cpus.cc_regfile_reads            201462                       # number of cc regfile reads
system.switch_cpus.cc_regfile_writes           202221                       # number of cc regfile writes
system.switch_cpus.committedInsts             1000003                       # Number of Instructions Simulated
system.switch_cpus.committedOps               1105205                       # Number of Ops (including micro ops) Simulated
system.switch_cpus.cpi                       0.574014                       # CPI: Cycles Per Instruction
system.switch_cpus.cpi_total                 0.574014                       # CPI: Total CPI of All Threads
system.switch_cpus.idleCycles                    2742                       # Total number of cycles that the CPU has spent unscheduled due to idling
system.switch_cpus.iew.branchMispredicts         2963                       # Number of branch mispredicts detected at execute
system.switch_cpus.iew.exec_branches           132460                       # Number of branches executed
system.switch_cpus.iew.exec_nop                  4495                       # number of nop insts executed
system.switch_cpus.iew.exec_rate             2.215210                       # Inst execution rate
system.switch_cpus.iew.exec_refs               579846                       # number of memory reference insts executed
system.switch_cpus.iew.exec_stores             210567                       # Number of stores executed
system.switch_cpus.iew.exec_swp                     0                       # number of swp insts executed
system.switch_cpus.iew.iewBlockCycles           59988                       # Number of cycles IEW is blocking
system.switch_cpus.iew.iewDispLoadInsts        374288                       # Number of dispatched load instructions
system.switch_cpus.iew.iewDispNonSpecInsts            0                       # Number of dispatched non-speculative instructions
system.switch_cpus.iew.iewDispSquashedInsts            0                       # Number of squashed instructions skipped by dispatch
system.switch_cpus.iew.iewDispStoreInsts       238558                       # Number of dispatched store instructions
system.switch_cpus.iew.iewDispatchedInsts      1357227                       # Number of instructions dispatched to IQ
system.switch_cpus.iew.iewExecLoadInsts        369279                       # Number of load instructions executed
system.switch_cpus.iew.iewExecSquashedInsts         6390                       # Number of squashed instructions skipped in execute
system.switch_cpus.iew.iewExecutedInsts       1271566                       # Number of executed instructions
system.switch_cpus.iew.iewIQFullEvents              0                       # Number of times the IQ has become full, causing a stall
system.switch_cpus.iew.iewIdleCycles                0                       # Number of cycles IEW is idle
system.switch_cpus.iew.iewLSQFullEvents             0                       # Number of times the LSQ has become full, causing a stall
system.switch_cpus.iew.iewSquashCycles           3087                       # Number of cycles IEW is squashing
system.switch_cpus.iew.iewUnblockCycles             0                       # Number of cycles IEW is unblocking
system.switch_cpus.iew.memOrderViolationEvents          159                       # Number of memory order violations
system.switch_cpus.iew.predictedNotTakenIncorrect         1139                       # Number of branches that were predicted not taken incorrectly
system.switch_cpus.iew.predictedTakenIncorrect         1824                       # Number of branches that were predicted taken incorrectly
system.switch_cpus.iew.wb_consumers           1390543                       # num instructions consuming a value
system.switch_cpus.iew.wb_count               1248515                       # cumulative count of insts written-back
system.switch_cpus.iew.wb_fanout             0.645864                       # average fanout of values written-back
system.switch_cpus.iew.wb_producers            898102                       # num instructions producing a value
system.switch_cpus.iew.wb_rate               2.175053                       # insts written-back per cycle
system.switch_cpus.iew.wb_sent                1250020                       # cumulative count of insts sent to commit
system.switch_cpus.int_regfile_reads          1595389                       # number of integer regfile reads
system.switch_cpus.int_regfile_writes          970537                       # number of integer regfile writes
system.switch_cpus.ipc                       1.742117                       # IPC: Instructions Per Cycle
system.switch_cpus.ipc_total                 1.742117                       # IPC: Total IPC of All Threads
system.switch_cpus.iq.FU_type_0::No_OpClass           17      0.00%      0.00% # Type of FU issued
system.switch_cpus.iq.FU_type_0::IntAlu        652219     51.04%     51.04% # Type of FU issued
system.switch_cpus.iq.FU_type_0::IntMult        39692      3.11%     54.14% # Type of FU issued
system.switch_cpus.iq.FU_type_0::IntDiv             0      0.00%     54.14% # Type of FU issued
system.switch_cpus.iq.FU_type_0::FloatAdd            0      0.00%     54.14% # Type of FU issued
system.switch_cpus.iq.FU_type_0::FloatCmp            0      0.00%     54.14% # Type of FU issued
system.switch_cpus.iq.FU_type_0::FloatCvt            0      0.00%     54.14% # Type of FU issued
system.switch_cpus.iq.FU_type_0::FloatMult            0      0.00%     54.14% # Type of FU issued
system.switch_cpus.iq.FU_type_0::FloatMultAcc            0      0.00%     54.14% # Type of FU issued
system.switch_cpus.iq.FU_type_0::FloatDiv            0      0.00%     54.14% # Type of FU issued
system.switch_cpus.iq.FU_type_0::FloatMisc            0      0.00%     54.14% # Type of FU issued
system.switch_cpus.iq.FU_type_0::FloatSqrt            0      0.00%     54.14% # Type of FU issued
system.switch_cpus.iq.FU_type_0::SimdAdd            0      0.00%     54.14% # Type of FU issued
system.switch_cpus.iq.FU_type_0::SimdAddAcc            0      0.00%     54.14% # Type of FU issued
system.switch_cpus.iq.FU_type_0::SimdAlu            0      0.00%     54.14% # Type of FU issued
system.switch_cpus.iq.FU_type_0::SimdCmp            0      0.00%     54.14% # Type of FU issued
system.switch_cpus.iq.FU_type_0::SimdCvt            0      0.00%     54.14% # Type of FU issued
system.switch_cpus.iq.FU_type_0::SimdMisc            0      0.00%     54.14% # Type of FU issued
system.switch_cpus.iq.FU_type_0::SimdMult            0      0.00%     54.14% # Type of FU issued
system.switch_cpus.iq.FU_type_0::SimdMultAcc            0      0.00%     54.14% # Type of FU issued
system.switch_cpus.iq.FU_type_0::SimdShift            0      0.00%     54.14% # Type of FU issued
system.switch_cpus.iq.FU_type_0::SimdShiftAcc            0      0.00%     54.14% # Type of FU issued
system.switch_cpus.iq.FU_type_0::SimdDiv            0      0.00%     54.14% # Type of FU issued
system.switch_cpus.iq.FU_type_0::SimdSqrt            0      0.00%     54.14% # Type of FU issued
system.switch_cpus.iq.FU_type_0::SimdFloatAdd            0      0.00%     54.14% # Type of FU issued
system.switch_cpus.iq.FU_type_0::SimdFloatAlu            0      0.00%     54.14% # Type of FU issued
system.switch_cpus.iq.FU_type_0::SimdFloatCmp            0      0.00%     54.14% # Type of FU issued
system.switch_cpus.iq.FU_type_0::SimdFloatCvt            0      0.00%     54.14% # Type of FU issued
system.switch_cpus.iq.FU_type_0::SimdFloatDiv            0      0.00%     54.14% # Type of FU issued
system.switch_cpus.iq.FU_type_0::SimdFloatMisc            0      0.00%     54.14% # Type of FU issued
system.switch_cpus.iq.FU_type_0::SimdFloatMult            0      0.00%     54.14% # Type of FU issued
system.switch_cpus.iq.FU_type_0::SimdFloatMultAcc            0      0.00%     54.14% # Type of FU issued
system.switch_cpus.iq.FU_type_0::SimdFloatSqrt            0      0.00%     54.14% # Type of FU issued
system.switch_cpus.iq.FU_type_0::SimdReduceAdd            0      0.00%     54.14% # Type of FU issued
system.switch_cpus.iq.FU_type_0::SimdReduceAlu            0      0.00%     54.14% # Type of FU issued
system.switch_cpus.iq.FU_type_0::SimdReduceCmp            0      0.00%     54.14% # Type of FU issued
system.switch_cpus.iq.FU_type_0::SimdFloatReduceAdd            0      0.00%     54.14% # Type of FU issued
system.switch_cpus.iq.FU_type_0::SimdFloatReduceCmp            0      0.00%     54.14% # Type of FU issued
system.switch_cpus.iq.FU_type_0::SimdAes            0      0.00%     54.14% # Type of FU issued
system.switch_cpus.iq.FU_type_0::SimdAesMix            0      0.00%     54.14% # Type of FU issued
system.switch_cpus.iq.FU_type_0::SimdSha1Hash            0      0.00%     54.14% # Type of FU issued
system.switch_cpus.iq.FU_type_0::SimdSha1Hash2            0      0.00%     54.14% # Type of FU issued
system.switch_cpus.iq.FU_type_0::SimdSha256Hash            0      0.00%     54.14% # Type of FU issued
system.switch_cpus.iq.FU_type_0::SimdSha256Hash2            0      0.00%     54.14% # Type of FU issued
system.switch_cpus.iq.FU_type_0::SimdShaSigma2            0      0.00%     54.14% # Type of FU issued
system.switch_cpus.iq.FU_type_0::SimdShaSigma3            0      0.00%     54.14% # Type of FU issued
system.switch_cpus.iq.FU_type_0::SimdPredAlu            0      0.00%     54.14% # Type of FU issued
system.switch_cpus.iq.FU_type_0::MemRead       372172     29.12%     83.27% # Type of FU issued
system.switch_cpus.iq.FU_type_0::MemWrite       213860     16.73%    100.00% # Type of FU issued
system.switch_cpus.iq.FU_type_0::FloatMemRead            0      0.00%    100.00% # Type of FU issued
system.switch_cpus.iq.FU_type_0::FloatMemWrite            0      0.00%    100.00% # Type of FU issued
system.switch_cpus.iq.FU_type_0::IprAccess            0      0.00%    100.00% # Type of FU issued
system.switch_cpus.iq.FU_type_0::InstPrefetch            0      0.00%    100.00% # Type of FU issued
system.switch_cpus.iq.FU_type_0::total        1277960                       # Type of FU issued
system.switch_cpus.iq.fp_alu_accesses               0                       # Number of floating point alu accesses
system.switch_cpus.iq.fp_inst_queue_reads            0                       # Number of floating instruction queue reads
system.switch_cpus.iq.fp_inst_queue_wakeup_accesses            0                       # Number of floating instruction queue wakeup accesses
system.switch_cpus.iq.fp_inst_queue_writes            0                       # Number of floating instruction queue writes
system.switch_cpus.iq.fu_busy_cnt              570889                       # FU busy when requested
system.switch_cpus.iq.fu_busy_rate           0.446719                       # FU busy rate (busy events/executed inst)
system.switch_cpus.iq.fu_full::No_OpClass            0      0.00%      0.00% # attempts to use FU when none available
system.switch_cpus.iq.fu_full::IntAlu          187281     32.81%     32.81% # attempts to use FU when none available
system.switch_cpus.iq.fu_full::IntMult            238      0.04%     32.85% # attempts to use FU when none available
system.switch_cpus.iq.fu_full::IntDiv               0      0.00%     32.85% # attempts to use FU when none available
system.switch_cpus.iq.fu_full::FloatAdd             0      0.00%     32.85% # attempts to use FU when none available
system.switch_cpus.iq.fu_full::FloatCmp             0      0.00%     32.85% # attempts to use FU when none available
system.switch_cpus.iq.fu_full::FloatCvt             0      0.00%     32.85% # attempts to use FU when none available
system.switch_cpus.iq.fu_full::FloatMult            0      0.00%     32.85% # attempts to use FU when none available
system.switch_cpus.iq.fu_full::FloatMultAcc            0      0.00%     32.85% # attempts to use FU when none available
system.switch_cpus.iq.fu_full::FloatDiv             0      0.00%     32.85% # attempts to use FU when none available
system.switch_cpus.iq.fu_full::FloatMisc            0      0.00%     32.85% # attempts to use FU when none available
system.switch_cpus.iq.fu_full::FloatSqrt            0      0.00%     32.85% # attempts to use FU when none available
system.switch_cpus.iq.fu_full::SimdAdd              0      0.00%     32.85% # attempts to use FU when none available
system.switch_cpus.iq.fu_full::SimdAddAcc            0      0.00%     32.85% # attempts to use FU when none available
system.switch_cpus.iq.fu_full::SimdAlu              0      0.00%     32.85% # attempts to use FU when none available
system.switch_cpus.iq.fu_full::SimdCmp              0      0.00%     32.85% # attempts to use FU when none available
system.switch_cpus.iq.fu_full::SimdCvt              0      0.00%     32.85% # attempts to use FU when none available
system.switch_cpus.iq.fu_full::SimdMisc             0      0.00%     32.85% # attempts to use FU when none available
system.switch_cpus.iq.fu_full::SimdMult             0      0.00%     32.85% # attempts to use FU when none available
system.switch_cpus.iq.fu_full::SimdMultAcc            0      0.00%     32.85% # attempts to use FU when none available
system.switch_cpus.iq.fu_full::SimdShift            0      0.00%     32.85% # attempts to use FU when none available
system.switch_cpus.iq.fu_full::SimdShiftAcc            0      0.00%     32.85% # attempts to use FU when none available
system.switch_cpus.iq.fu_full::SimdDiv              0      0.00%     32.85% # attempts to use FU when none available
system.switch_cpus.iq.fu_full::SimdSqrt             0      0.00%     32.85% # attempts to use FU when none available
system.switch_cpus.iq.fu_full::SimdFloatAdd            0      0.00%     32.85% # attempts to use FU when none available
system.switch_cpus.iq.fu_full::SimdFloatAlu            0      0.00%     32.85% # attempts to use FU when none available
system.switch_cpus.iq.fu_full::SimdFloatCmp            0      0.00%     32.85% # attempts to use FU when none available
system.switch_cpus.iq.fu_full::SimdFloatCvt            0      0.00%     32.85% # attempts to use FU when none available
system.switch_cpus.iq.fu_full::SimdFloatDiv            0      0.00%     32.85% # attempts to use FU when none available
system.switch_cpus.iq.fu_full::SimdFloatMisc            0      0.00%     32.85% # attempts to use FU when none available
system.switch_cpus.iq.fu_full::SimdFloatMult            0      0.00%     32.85% # attempts to use FU when none available
system.switch_cpus.iq.fu_full::SimdFloatMultAcc            0      0.00%     32.85% # attempts to use FU when none available
system.switch_cpus.iq.fu_full::SimdFloatSqrt            0      0.00%     32.85% # attempts to use FU when none available
system.switch_cpus.iq.fu_full::SimdReduceAdd            0      0.00%     32.85% # attempts to use FU when none available
system.switch_cpus.iq.fu_full::SimdReduceAlu            0      0.00%     32.85% # attempts to use FU when none available
system.switch_cpus.iq.fu_full::SimdReduceCmp            0      0.00%     32.85% # attempts to use FU when none available
system.switch_cpus.iq.fu_full::SimdFloatReduceAdd            0      0.00%     32.85% # attempts to use FU when none available
system.switch_cpus.iq.fu_full::SimdFloatReduceCmp            0      0.00%     32.85% # attempts to use FU when none available
system.switch_cpus.iq.fu_full::SimdAes              0      0.00%     32.85% # attempts to use FU when none available
system.switch_cpus.iq.fu_full::SimdAesMix            0      0.00%     32.85% # attempts to use FU when none available
system.switch_cpus.iq.fu_full::SimdSha1Hash            0      0.00%     32.85% # attempts to use FU when none available
system.switch_cpus.iq.fu_full::SimdSha1Hash2            0      0.00%     32.85% # attempts to use FU when none available
system.switch_cpus.iq.fu_full::SimdSha256Hash            0      0.00%     32.85% # attempts to use FU when none available
system.switch_cpus.iq.fu_full::SimdSha256Hash2            0      0.00%     32.85% # attempts to use FU when none available
system.switch_cpus.iq.fu_full::SimdShaSigma2            0      0.00%     32.85% # attempts to use FU when none available
system.switch_cpus.iq.fu_full::SimdShaSigma3            0      0.00%     32.85% # attempts to use FU when none available
system.switch_cpus.iq.fu_full::SimdPredAlu            0      0.00%     32.85% # attempts to use FU when none available
system.switch_cpus.iq.fu_full::MemRead         290656     50.91%     83.76% # attempts to use FU when none available
system.switch_cpus.iq.fu_full::MemWrite         92714     16.24%    100.00% # attempts to use FU when none available
system.switch_cpus.iq.fu_full::FloatMemRead            0      0.00%    100.00% # attempts to use FU when none available
system.switch_cpus.iq.fu_full::FloatMemWrite            0      0.00%    100.00% # attempts to use FU when none available
system.switch_cpus.iq.fu_full::IprAccess            0      0.00%    100.00% # attempts to use FU when none available
system.switch_cpus.iq.fu_full::InstPrefetch            0      0.00%    100.00% # attempts to use FU when none available
system.switch_cpus.iq.int_alu_accesses        1848832                       # Number of integer alu accesses
system.switch_cpus.iq.int_inst_queue_reads      3708989                       # Number of integer instruction queue reads
system.switch_cpus.iq.int_inst_queue_wakeup_accesses      1248515                       # Number of integer instruction queue wakeup accesses
system.switch_cpus.iq.int_inst_queue_writes      1600295                       # Number of integer instruction queue writes
system.switch_cpus.iq.iqInstsAdded            1352732                       # Number of instructions added to the IQ (excludes non-spec)
system.switch_cpus.iq.iqInstsIssued           1277960                       # Number of instructions issued
system.switch_cpus.iq.iqSquashedInstsExamined       247404                       # Number of squashed instructions iterated over during squash; mainly for profiling
system.switch_cpus.iq.iqSquashedInstsIssued        10910                       # Number of squashed instructions issued
system.switch_cpus.iq.iqSquashedOperandsExamined       162805                       # Number of squashed operands that are examined and possibly removed from graph
system.switch_cpus.iq.issued_per_cycle::samples       571274                       # Number of insts issued each cycle
system.switch_cpus.iq.issued_per_cycle::mean     2.237035                       # Number of insts issued each cycle
system.switch_cpus.iq.issued_per_cycle::stdev     1.361342                       # Number of insts issued each cycle
system.switch_cpus.iq.issued_per_cycle::underflows            0      0.00%      0.00% # Number of insts issued each cycle
system.switch_cpus.iq.issued_per_cycle::0        92909     16.26%     16.26% # Number of insts issued each cycle
system.switch_cpus.iq.issued_per_cycle::1        79348     13.89%     30.15% # Number of insts issued each cycle
system.switch_cpus.iq.issued_per_cycle::2       111416     19.50%     49.66% # Number of insts issued each cycle
system.switch_cpus.iq.issued_per_cycle::3       181271     31.73%     81.39% # Number of insts issued each cycle
system.switch_cpus.iq.issued_per_cycle::4        99683     17.45%     98.84% # Number of insts issued each cycle
system.switch_cpus.iq.issued_per_cycle::5         6647      1.16%    100.00% # Number of insts issued each cycle
system.switch_cpus.iq.issued_per_cycle::6            0      0.00%    100.00% # Number of insts issued each cycle
system.switch_cpus.iq.issued_per_cycle::7            0      0.00%    100.00% # Number of insts issued each cycle
system.switch_cpus.iq.issued_per_cycle::8            0      0.00%    100.00% # Number of insts issued each cycle
system.switch_cpus.iq.issued_per_cycle::overflows            0      0.00%    100.00% # Number of insts issued each cycle
system.switch_cpus.iq.issued_per_cycle::min_value            0                       # Number of insts issued each cycle
system.switch_cpus.iq.issued_per_cycle::max_value            5                       # Number of insts issued each cycle
system.switch_cpus.iq.issued_per_cycle::total       571274                       # Number of insts issued each cycle
system.switch_cpus.iq.rate                   2.226349                       # Inst issue rate
system.switch_cpus.iq.vec_alu_accesses              0                       # Number of vector alu accesses
system.switch_cpus.iq.vec_inst_queue_reads            0                       # Number of vector instruction queue reads
system.switch_cpus.iq.vec_inst_queue_wakeup_accesses            0                       # Number of vector instruction queue wakeup accesses
system.switch_cpus.iq.vec_inst_queue_writes            0                       # Number of vector instruction queue writes
system.switch_cpus.memDep0.conflictingLoads       185771                       # Number of conflicting loads.
system.switch_cpus.memDep0.conflictingStores        25520                       # Number of conflicting stores.
system.switch_cpus.memDep0.insertedLoads       374288                       # Number of loads inserted to the mem dependence unit.
system.switch_cpus.memDep0.insertedStores       238558                       # Number of stores inserted to the mem dependence unit.
system.switch_cpus.misc_regfile_reads         2835125                       # number of misc regfile reads
system.switch_cpus.misc_regfile_writes              1                       # number of misc regfile writes
system.switch_cpus.numCycles                   574016                       # number of cpu cycles simulated
system.switch_cpus.numWorkItemsCompleted            0                       # number of work items this cpu completed
system.switch_cpus.numWorkItemsStarted              0                       # number of work items this cpu started
system.switch_cpus.timesIdled                      30                       # Number of times that the entire CPU went into an idle state and unscheduled itself
system.switch_cpus.vec_regfile_writes              44                       # number of vector regfile writes
system.tol2bus.snoop_filter.hit_multi_requests            0                       # Number of requests hitting in the snoop filter with multiple (>1) holders of the requested data.
system.tol2bus.snoop_filter.hit_multi_snoops            0                       # Number of snoops hitting in the snoop filter with multiple (>1) holders of the requested data.
system.tol2bus.snoop_filter.hit_single_requests            0                       # Number of requests hitting in the snoop filter with a single holder of the requested data.
system.tol2bus.snoop_filter.hit_single_snoops            0                       # Number of snoops hitting in the snoop filter with a single holder of the requested data.
system.tol2bus.snoop_filter.tot_requests          191                       # Total number of requests made to the snoop filter.
system.tol2bus.snoop_filter.tot_snoops              0                       # Total number of snoops made to the snoop filter.
system.clk_domain.clock                          1000                       # Clock period in ticks
system.cpu.dcache.demand_hits::.cpu.data            8                       # number of demand (read+write) hits
system.cpu.dcache.demand_hits::.switch_cpus.data       346709                       # number of demand (read+write) hits
system.cpu.dcache.demand_hits::total           346717                       # number of demand (read+write) hits
system.cpu.dcache.overall_hits::.cpu.data            8                       # number of overall hits
system.cpu.dcache.overall_hits::.switch_cpus.data       346709                       # number of overall hits
system.cpu.dcache.overall_hits::total          346717                       # number of overall hits
system.cpu.dcache.demand_misses::.cpu.data            2                       # number of demand (read+write) misses
system.cpu.dcache.demand_misses::.switch_cpus.data          201                       # number of demand (read+write) misses
system.cpu.dcache.demand_misses::total            203                       # number of demand (read+write) misses
system.cpu.dcache.overall_misses::.cpu.data            2                       # number of overall misses
system.cpu.dcache.overall_misses::.switch_cpus.data          201                       # number of overall misses
system.cpu.dcache.overall_misses::total           203                       # number of overall misses
system.cpu.dcache.demand_miss_latency::.switch_cpus.data      6450000                       # number of demand (read+write) miss cycles
system.cpu.dcache.demand_miss_latency::total      6450000                       # number of demand (read+write) miss cycles
system.cpu.dcache.overall_miss_latency::.switch_cpus.data      6450000                       # number of overall miss cycles
system.cpu.dcache.overall_miss_latency::total      6450000                       # number of overall miss cycles
system.cpu.dcache.demand_accesses::.cpu.data           10                       # number of demand (read+write) accesses
system.cpu.dcache.demand_accesses::.switch_cpus.data       346910                       # number of demand (read+write) accesses
system.cpu.dcache.demand_accesses::total       346920                       # number of demand (read+write) accesses
system.cpu.dcache.overall_accesses::.cpu.data           10                       # number of overall (read+write) accesses
system.cpu.dcache.overall_accesses::.switch_cpus.data       346910                       # number of overall (read+write) accesses
system.cpu.dcache.overall_accesses::total       346920                       # number of overall (read+write) accesses
system.cpu.dcache.demand_miss_rate::.cpu.data     0.200000                       # miss rate for demand accesses
system.cpu.dcache.demand_miss_rate::.switch_cpus.data     0.000579                       # miss rate for demand accesses
system.cpu.dcache.demand_miss_rate::total     0.000585                       # miss rate for demand accesses
system.cpu.dcache.overall_miss_rate::.cpu.data     0.200000                       # miss rate for overall accesses
system.cpu.dcache.overall_miss_rate::.switch_cpus.data     0.000579                       # miss rate for overall accesses
system.cpu.dcache.overall_miss_rate::total     0.000585                       # miss rate for overall accesses
system.cpu.dcache.demand_avg_miss_latency::.switch_cpus.data 32089.552239                       # average overall miss latency
system.cpu.dcache.demand_avg_miss_latency::total 31773.399015                       # average overall miss latency
system.cpu.dcache.overall_avg_miss_latency::.switch_cpus.data 32089.552239                       # average overall miss latency
system.cpu.dcache.overall_avg_miss_latency::total 31773.399015                       # average overall miss latency
system.cpu.dcache.blocked_cycles::no_mshrs            0                       # number of cycles access was blocked
system.cpu.dcache.blocked_cycles::no_targets            0                       # number of cycles access was blocked
system.cpu.dcache.blocked::no_mshrs                 0                       # number of cycles access was blocked
system.cpu.dcache.blocked::no_targets               0                       # number of cycles access was blocked
system.cpu.dcache.avg_blocked_cycles::no_mshrs          nan                       # average number of cycles each access was blocked
system.cpu.dcache.avg_blocked_cycles::no_targets          nan                       # average number of cycles each access was blocked
system.cpu.dcache.demand_mshr_hits::.switch_cpus.data           58                       # number of demand (read+write) MSHR hits
system.cpu.dcache.demand_mshr_hits::total           58                       # number of demand (read+write) MSHR hits
system.cpu.dcache.overall_mshr_hits::.switch_cpus.data           58                       # number of overall MSHR hits
system.cpu.dcache.overall_mshr_hits::total           58                       # number of overall MSHR hits
system.cpu.dcache.demand_mshr_misses::.switch_cpus.data          143                       # number of demand (read+write) MSHR misses
system.cpu.dcache.demand_mshr_misses::total          143                       # number of demand (read+write) MSHR misses
system.cpu.dcache.overall_mshr_misses::.switch_cpus.data          143                       # number of overall MSHR misses
system.cpu.dcache.overall_mshr_misses::total          143                       # number of overall MSHR misses
system.cpu.dcache.demand_mshr_miss_latency::.switch_cpus.data      3069600                       # number of demand (read+write) MSHR miss cycles
system.cpu.dcache.demand_mshr_miss_latency::total      3069600                       # number of demand (read+write) MSHR miss cycles
system.cpu.dcache.overall_mshr_miss_latency::.switch_cpus.data      3069600                       # number of overall MSHR miss cycles
system.cpu.dcache.overall_mshr_miss_latency::total      3069600                       # number of overall MSHR miss cycles
system.cpu.dcache.demand_mshr_miss_rate::.switch_cpus.data     0.000412                       # mshr miss rate for demand accesses
system.cpu.dcache.demand_mshr_miss_rate::total     0.000412                       # mshr miss rate for demand accesses
system.cpu.dcache.overall_mshr_miss_rate::.switch_cpus.data     0.000412                       # mshr miss rate for overall accesses
system.cpu.dcache.overall_mshr_miss_rate::total     0.000412                       # mshr miss rate for overall accesses
system.cpu.dcache.demand_avg_mshr_miss_latency::.switch_cpus.data 21465.734266                       # average overall mshr miss latency
system.cpu.dcache.demand_avg_mshr_miss_latency::total 21465.734266                       # average overall mshr miss latency
system.cpu.dcache.overall_avg_mshr_miss_latency::.switch_cpus.data 21465.734266                       # average overall mshr miss latency
system.cpu.dcache.overall_avg_mshr_miss_latency::total 21465.734266                       # average overall mshr miss latency
system.cpu.dcache.replacements                      0                       # number of replacements
system.cpu.dcache.ReadReq_hits::.cpu.data            5                       # number of ReadReq hits
system.cpu.dcache.ReadReq_hits::.switch_cpus.data       164639                       # number of ReadReq hits
system.cpu.dcache.ReadReq_hits::total          164644                       # number of ReadReq hits
system.cpu.dcache.ReadReq_misses::.cpu.data            1                       # number of ReadReq misses
system.cpu.dcache.ReadReq_misses::.switch_cpus.data          150                       # number of ReadReq misses
system.cpu.dcache.ReadReq_misses::total           151                       # number of ReadReq misses
system.cpu.dcache.ReadReq_miss_latency::.switch_cpus.data      4986400                       # number of ReadReq miss cycles
system.cpu.dcache.ReadReq_miss_latency::total      4986400                       # number of ReadReq miss cycles
system.cpu.dcache.ReadReq_accesses::.cpu.data            6                       # number of ReadReq accesses(hits+misses)
system.cpu.dcache.ReadReq_accesses::.switch_cpus.data       164789                       # number of ReadReq accesses(hits+misses)
system.cpu.dcache.ReadReq_accesses::total       164795                       # number of ReadReq accesses(hits+misses)
system.cpu.dcache.ReadReq_miss_rate::.cpu.data     0.166667                       # miss rate for ReadReq accesses
system.cpu.dcache.ReadReq_miss_rate::.switch_cpus.data     0.000910                       # miss rate for ReadReq accesses
system.cpu.dcache.ReadReq_miss_rate::total     0.000916                       # miss rate for ReadReq accesses
system.cpu.dcache.ReadReq_avg_miss_latency::.switch_cpus.data 33242.666667                       # average ReadReq miss latency
system.cpu.dcache.ReadReq_avg_miss_latency::total 33022.516556                       # average ReadReq miss latency
system.cpu.dcache.ReadReq_mshr_hits::.switch_cpus.data           33                       # number of ReadReq MSHR hits
system.cpu.dcache.ReadReq_mshr_hits::total           33                       # number of ReadReq MSHR hits
system.cpu.dcache.ReadReq_mshr_misses::.switch_cpus.data          117                       # number of ReadReq MSHR misses
system.cpu.dcache.ReadReq_mshr_misses::total          117                       # number of ReadReq MSHR misses
system.cpu.dcache.ReadReq_mshr_miss_latency::.switch_cpus.data      2304400                       # number of ReadReq MSHR miss cycles
system.cpu.dcache.ReadReq_mshr_miss_latency::total      2304400                       # number of ReadReq MSHR miss cycles
system.cpu.dcache.ReadReq_mshr_miss_rate::.switch_cpus.data     0.000710                       # mshr miss rate for ReadReq accesses
system.cpu.dcache.ReadReq_mshr_miss_rate::total     0.000710                       # mshr miss rate for ReadReq accesses
system.cpu.dcache.ReadReq_avg_mshr_miss_latency::.switch_cpus.data 19695.726496                       # average ReadReq mshr miss latency
system.cpu.dcache.ReadReq_avg_mshr_miss_latency::total 19695.726496                       # average ReadReq mshr miss latency
system.cpu.dcache.WriteReq_hits::.cpu.data            3                       # number of WriteReq hits
system.cpu.dcache.WriteReq_hits::.switch_cpus.data       182070                       # number of WriteReq hits
system.cpu.dcache.WriteReq_hits::total         182073                       # number of WriteReq hits
system.cpu.dcache.WriteReq_misses::.cpu.data            1                       # number of WriteReq misses
system.cpu.dcache.WriteReq_misses::.switch_cpus.data           51                       # number of WriteReq misses
system.cpu.dcache.WriteReq_misses::total           52                       # number of WriteReq misses
system.cpu.dcache.WriteReq_miss_latency::.switch_cpus.data      1463600                       # number of WriteReq miss cycles
system.cpu.dcache.WriteReq_miss_latency::total      1463600                       # number of WriteReq miss cycles
system.cpu.dcache.WriteReq_accesses::.cpu.data            4                       # number of WriteReq accesses(hits+misses)
system.cpu.dcache.WriteReq_accesses::.switch_cpus.data       182121                       # number of WriteReq accesses(hits+misses)
system.cpu.dcache.WriteReq_accesses::total       182125                       # number of WriteReq accesses(hits+misses)
system.cpu.dcache.WriteReq_miss_rate::.cpu.data     0.250000                       # miss rate for WriteReq accesses
system.cpu.dcache.WriteReq_miss_rate::.switch_cpus.data     0.000280                       # miss rate for WriteReq accesses
system.cpu.dcache.WriteReq_miss_rate::total     0.000286                       # miss rate for WriteReq accesses
system.cpu.dcache.WriteReq_avg_miss_latency::.switch_cpus.data 28698.039216                       # average WriteReq miss latency
system.cpu.dcache.WriteReq_avg_miss_latency::total 28146.153846                       # average WriteReq miss latency
system.cpu.dcache.WriteReq_mshr_hits::.switch_cpus.data           25                       # number of WriteReq MSHR hits
system.cpu.dcache.WriteReq_mshr_hits::total           25                       # number of WriteReq MSHR hits
system.cpu.dcache.WriteReq_mshr_misses::.switch_cpus.data           26                       # number of WriteReq MSHR misses
system.cpu.dcache.WriteReq_mshr_misses::total           26                       # number of WriteReq MSHR misses
system.cpu.dcache.WriteReq_mshr_miss_latency::.switch_cpus.data       765200                       # number of WriteReq MSHR miss cycles
system.cpu.dcache.WriteReq_mshr_miss_latency::total       765200                       # number of WriteReq MSHR miss cycles
system.cpu.dcache.WriteReq_mshr_miss_rate::.switch_cpus.data     0.000143                       # mshr miss rate for WriteReq accesses
system.cpu.dcache.WriteReq_mshr_miss_rate::total     0.000143                       # mshr miss rate for WriteReq accesses
system.cpu.dcache.WriteReq_avg_mshr_miss_latency::.switch_cpus.data 29430.769231                       # average WriteReq mshr miss latency
system.cpu.dcache.WriteReq_avg_mshr_miss_latency::total 29430.769231                       # average WriteReq mshr miss latency
system.cpu.dcache.power_state.pwrStateResidencyTicks::UNDEFINED 101428554400                       # Cumulative time (in ticks) in various power states
system.cpu.dcache.tags.tagsinuse            76.897133                       # Cycle average of tags in use
system.cpu.dcache.tags.total_refs                   0                       # Total number of references to valid blocks.
system.cpu.dcache.tags.sampled_refs                 0                       # Sample count of references to valid blocks.
system.cpu.dcache.tags.avg_refs                   nan                       # Average number of references to valid blocks.
system.cpu.dcache.tags.warmup_cycle      101198938400                       # Cycle when the warmup percentage was hit.
system.cpu.dcache.tags.occ_blocks::.cpu.data     1.999990                       # Average occupied blocks per requestor
system.cpu.dcache.tags.occ_blocks::.switch_cpus.data    74.897144                       # Average occupied blocks per requestor
system.cpu.dcache.tags.occ_percent::.cpu.data     0.007812                       # Average percentage of cache occupancy
system.cpu.dcache.tags.occ_percent::.switch_cpus.data     0.292567                       # Average percentage of cache occupancy
system.cpu.dcache.tags.occ_percent::total     0.300379                       # Average percentage of cache occupancy
system.cpu.dcache.tags.occ_task_id_blocks::1024          145                       # Occupied blocks per task id
system.cpu.dcache.tags.age_task_id_blocks_1024::0            6                       # Occupied blocks per task id
system.cpu.dcache.tags.age_task_id_blocks_1024::1           54                       # Occupied blocks per task id
system.cpu.dcache.tags.age_task_id_blocks_1024::2           85                       # Occupied blocks per task id
system.cpu.dcache.tags.occ_task_id_percent::1024     0.566406                       # Percentage of cache occupancy per task id
system.cpu.dcache.tags.tag_accesses           2775505                       # Number of tag accesses
system.cpu.dcache.tags.data_accesses          2775505                       # Number of data accesses
system.cpu.dcache.tags.power_state.pwrStateResidencyTicks::UNDEFINED 101428554400                       # Cumulative time (in ticks) in various power states
system.cpu.dtb.instHits                             0                       # ITB inst hits
system.cpu.dtb.instMisses                           0                       # ITB inst misses
system.cpu.dtb.readHits                             0                       # DTB read hits
system.cpu.dtb.readMisses                           0                       # DTB read misses
system.cpu.dtb.writeHits                            0                       # DTB write hits
system.cpu.dtb.writeMisses                          0                       # DTB write misses
system.cpu.dtb.inserts                              0                       # Number of times an entry is inserted into the TLB
system.cpu.dtb.flushTlb                             2                       # Number of times complete TLB was flushed
system.cpu.dtb.flushTlbMva                          0                       # Number of times TLB was flushed by MVA
system.cpu.dtb.flushTlbMvaAsid                      0                       # Number of times TLB was flushed by MVA & ASID
system.cpu.dtb.flushTlbAsid                         0                       # Number of times TLB was flushed by ASID
system.cpu.dtb.flushedEntries                       0                       # Number of entries that have been flushed from TLB
system.cpu.dtb.alignFaults                          0                       # Number of TLB faults due to alignment restrictions
system.cpu.dtb.prefetchFaults                       0                       # Number of TLB faults due to prefetch
system.cpu.dtb.domainFaults                         0                       # Number of TLB faults due to domain restrictions
system.cpu.dtb.permsFaults                          0                       # Number of TLB faults due to permissions restrictions
system.cpu.dtb.readAccesses                         0                       # DTB read accesses
system.cpu.dtb.writeAccesses                        0                       # DTB write accesses
system.cpu.dtb.instAccesses                         0                       # ITB inst accesses
system.cpu.dtb.hits                                 0                       # Total TLB (inst and data) hits
system.cpu.dtb.misses                               0                       # Total TLB (inst and data) misses
system.cpu.dtb.accesses                             0                       # Total TLB (inst and data) accesses
system.cpu.dtb.stage2_mmu.stage2_tlb.instHits            0                       # ITB inst hits
system.cpu.dtb.stage2_mmu.stage2_tlb.instMisses            0                       # ITB inst misses
system.cpu.dtb.stage2_mmu.stage2_tlb.readHits            0                       # DTB read hits
system.cpu.dtb.stage2_mmu.stage2_tlb.readMisses            0                       # DTB read misses
system.cpu.dtb.stage2_mmu.stage2_tlb.writeHits            0                       # DTB write hits
system.cpu.dtb.stage2_mmu.stage2_tlb.writeMisses            0                       # DTB write misses
system.cpu.dtb.stage2_mmu.stage2_tlb.inserts            0                       # Number of times an entry is inserted into the TLB
system.cpu.dtb.stage2_mmu.stage2_tlb.flushTlb            0                       # Number of times complete TLB was flushed
system.cpu.dtb.stage2_mmu.stage2_tlb.flushTlbMva            0                       # Number of times TLB was flushed by MVA
system.cpu.dtb.stage2_mmu.stage2_tlb.flushTlbMvaAsid            0                       # Number of times TLB was flushed by MVA & ASID
system.cpu.dtb.stage2_mmu.stage2_tlb.flushTlbAsid            0                       # Number of times TLB was flushed by ASID
system.cpu.dtb.stage2_mmu.stage2_tlb.flushedEntries            0                       # Number of entries that have been flushed from TLB
system.cpu.dtb.stage2_mmu.stage2_tlb.alignFaults            0                       # Number of TLB faults due to alignment restrictions
system.cpu.dtb.stage2_mmu.stage2_tlb.prefetchFaults            0                       # Number of TLB faults due to prefetch
system.cpu.dtb.stage2_mmu.stage2_tlb.domainFaults            0                       # Number of TLB faults due to domain restrictions
system.cpu.dtb.stage2_mmu.stage2_tlb.permsFaults            0                       # Number of TLB faults due to permissions restrictions
system.cpu.dtb.stage2_mmu.stage2_tlb.readAccesses            0                       # DTB read accesses
system.cpu.dtb.stage2_mmu.stage2_tlb.writeAccesses            0                       # DTB write accesses
system.cpu.dtb.stage2_mmu.stage2_tlb.instAccesses            0                       # ITB inst accesses
system.cpu.dtb.stage2_mmu.stage2_tlb.hits            0                       # Total TLB (inst and data) hits
system.cpu.dtb.stage2_mmu.stage2_tlb.misses            0                       # Total TLB (inst and data) misses
system.cpu.dtb.stage2_mmu.stage2_tlb.accesses            0                       # Total TLB (inst and data) accesses
system.cpu.dtb.stage2_mmu.stage2_tlb.walker.walks            0                       # Table walker walks requested
system.cpu.dtb.stage2_mmu.stage2_tlb.walker.requestOrigin_Requested::Data            0                       # Table walker requests started/completed, data/inst
system.cpu.dtb.stage2_mmu.stage2_tlb.walker.requestOrigin_Requested::Inst            0                       # Table walker requests started/completed, data/inst
system.cpu.dtb.stage2_mmu.stage2_tlb.walker.requestOrigin_Requested::total            0                       # Table walker requests started/completed, data/inst
system.cpu.dtb.stage2_mmu.stage2_tlb.walker.requestOrigin_Completed::Data            0                       # Table walker requests started/completed, data/inst
system.cpu.dtb.stage2_mmu.stage2_tlb.walker.requestOrigin_Completed::Inst            0                       # Table walker requests started/completed, data/inst
system.cpu.dtb.stage2_mmu.stage2_tlb.walker.requestOrigin_Completed::total            0                       # Table walker requests started/completed, data/inst
system.cpu.dtb.stage2_mmu.stage2_tlb.walker.requestOrigin::total            0                       # Table walker requests started/completed, data/inst
system.cpu.dtb.stage2_mmu.stage2_tlb.walker.power_state.pwrStateResidencyTicks::UNDEFINED 101428554400                       # Cumulative time (in ticks) in various power states
system.cpu.dtb.walker.walks                         0                       # Table walker walks requested
system.cpu.dtb.walker.requestOrigin_Requested::Data            0                       # Table walker requests started/completed, data/inst
system.cpu.dtb.walker.requestOrigin_Requested::Inst            0                       # Table walker requests started/completed, data/inst
system.cpu.dtb.walker.requestOrigin_Requested::total            0                       # Table walker requests started/completed, data/inst
system.cpu.dtb.walker.requestOrigin_Completed::Data            0                       # Table walker requests started/completed, data/inst
system.cpu.dtb.walker.requestOrigin_Completed::Inst            0                       # Table walker requests started/completed, data/inst
system.cpu.dtb.walker.requestOrigin_Completed::total            0                       # Table walker requests started/completed, data/inst
system.cpu.dtb.walker.requestOrigin::total            0                       # Table walker requests started/completed, data/inst
system.cpu.dtb.walker.power_state.pwrStateResidencyTicks::UNDEFINED 101428554400                       # Cumulative time (in ticks) in various power states
system.cpu.dtb_walker_cache.blocked_cycles::no_mshrs            0                       # number of cycles access was blocked
system.cpu.dtb_walker_cache.blocked_cycles::no_targets            0                       # number of cycles access was blocked
system.cpu.dtb_walker_cache.blocked::no_mshrs            0                       # number of cycles access was blocked
system.cpu.dtb_walker_cache.blocked::no_targets            0                       # number of cycles access was blocked
system.cpu.dtb_walker_cache.avg_blocked_cycles::no_mshrs          nan                       # average number of cycles each access was blocked
system.cpu.dtb_walker_cache.avg_blocked_cycles::no_targets          nan                       # average number of cycles each access was blocked
system.cpu.dtb_walker_cache.replacements            0                       # number of replacements
system.cpu.dtb_walker_cache.power_state.pwrStateResidencyTicks::UNDEFINED 101428554400                       # Cumulative time (in ticks) in various power states
system.cpu.dtb_walker_cache.tags.tagsinuse            0                       # Cycle average of tags in use
system.cpu.dtb_walker_cache.tags.total_refs            0                       # Total number of references to valid blocks.
system.cpu.dtb_walker_cache.tags.sampled_refs            0                       # Sample count of references to valid blocks.
system.cpu.dtb_walker_cache.tags.avg_refs          nan                       # Average number of references to valid blocks.
system.cpu.dtb_walker_cache.tags.warmup_cycle            0                       # Cycle when the warmup percentage was hit.
system.cpu.dtb_walker_cache.tags.tag_accesses            0                       # Number of tag accesses
system.cpu.dtb_walker_cache.tags.data_accesses            0                       # Number of data accesses
system.cpu.dtb_walker_cache.tags.power_state.pwrStateResidencyTicks::UNDEFINED 101428554400                       # Cumulative time (in ticks) in various power states
system.cpu.icache.demand_hits::.cpu.inst           22                       # number of demand (read+write) hits
system.cpu.icache.demand_hits::.switch_cpus.inst       194608                       # number of demand (read+write) hits
system.cpu.icache.demand_hits::total           194630                       # number of demand (read+write) hits
system.cpu.icache.overall_hits::.cpu.inst           22                       # number of overall hits
system.cpu.icache.overall_hits::.switch_cpus.inst       194608                       # number of overall hits
system.cpu.icache.overall_hits::total          194630                       # number of overall hits
system.cpu.icache.demand_misses::.cpu.inst            3                       # number of demand (read+write) misses
system.cpu.icache.demand_misses::.switch_cpus.inst           69                       # number of demand (read+write) misses
system.cpu.icache.demand_misses::total             72                       # number of demand (read+write) misses
system.cpu.icache.overall_misses::.cpu.inst            3                       # number of overall misses
system.cpu.icache.overall_misses::.switch_cpus.inst           69                       # number of overall misses
system.cpu.icache.overall_misses::total            72                       # number of overall misses
system.cpu.icache.demand_miss_latency::.switch_cpus.inst      3977600                       # number of demand (read+write) miss cycles
system.cpu.icache.demand_miss_latency::total      3977600                       # number of demand (read+write) miss cycles
system.cpu.icache.overall_miss_latency::.switch_cpus.inst      3977600                       # number of overall miss cycles
system.cpu.icache.overall_miss_latency::total      3977600                       # number of overall miss cycles
system.cpu.icache.demand_accesses::.cpu.inst           25                       # number of demand (read+write) accesses
system.cpu.icache.demand_accesses::.switch_cpus.inst       194677                       # number of demand (read+write) accesses
system.cpu.icache.demand_accesses::total       194702                       # number of demand (read+write) accesses
system.cpu.icache.overall_accesses::.cpu.inst           25                       # number of overall (read+write) accesses
system.cpu.icache.overall_accesses::.switch_cpus.inst       194677                       # number of overall (read+write) accesses
system.cpu.icache.overall_accesses::total       194702                       # number of overall (read+write) accesses
system.cpu.icache.demand_miss_rate::.cpu.inst     0.120000                       # miss rate for demand accesses
system.cpu.icache.demand_miss_rate::.switch_cpus.inst     0.000354                       # miss rate for demand accesses
system.cpu.icache.demand_miss_rate::total     0.000370                       # miss rate for demand accesses
system.cpu.icache.overall_miss_rate::.cpu.inst     0.120000                       # miss rate for overall accesses
system.cpu.icache.overall_miss_rate::.switch_cpus.inst     0.000354                       # miss rate for overall accesses
system.cpu.icache.overall_miss_rate::total     0.000370                       # miss rate for overall accesses
system.cpu.icache.demand_avg_miss_latency::.switch_cpus.inst 57646.376812                       # average overall miss latency
system.cpu.icache.demand_avg_miss_latency::total 55244.444444                       # average overall miss latency
system.cpu.icache.overall_avg_miss_latency::.switch_cpus.inst 57646.376812                       # average overall miss latency
system.cpu.icache.overall_avg_miss_latency::total 55244.444444                       # average overall miss latency
system.cpu.icache.blocked_cycles::no_mshrs         1795                       # number of cycles access was blocked
system.cpu.icache.blocked_cycles::no_targets            0                       # number of cycles access was blocked
system.cpu.icache.blocked::no_mshrs                16                       # number of cycles access was blocked
system.cpu.icache.blocked::no_targets               0                       # number of cycles access was blocked
system.cpu.icache.avg_blocked_cycles::no_mshrs   112.187500                       # average number of cycles each access was blocked
system.cpu.icache.avg_blocked_cycles::no_targets          nan                       # average number of cycles each access was blocked
system.cpu.icache.demand_mshr_hits::.switch_cpus.inst           26                       # number of demand (read+write) MSHR hits
system.cpu.icache.demand_mshr_hits::total           26                       # number of demand (read+write) MSHR hits
system.cpu.icache.overall_mshr_hits::.switch_cpus.inst           26                       # number of overall MSHR hits
system.cpu.icache.overall_mshr_hits::total           26                       # number of overall MSHR hits
system.cpu.icache.demand_mshr_misses::.switch_cpus.inst           43                       # number of demand (read+write) MSHR misses
system.cpu.icache.demand_mshr_misses::total           43                       # number of demand (read+write) MSHR misses
system.cpu.icache.overall_mshr_misses::.switch_cpus.inst           43                       # number of overall MSHR misses
system.cpu.icache.overall_mshr_misses::total           43                       # number of overall MSHR misses
system.cpu.icache.demand_mshr_miss_latency::.switch_cpus.inst      2833600                       # number of demand (read+write) MSHR miss cycles
system.cpu.icache.demand_mshr_miss_latency::total      2833600                       # number of demand (read+write) MSHR miss cycles
system.cpu.icache.overall_mshr_miss_latency::.switch_cpus.inst      2833600                       # number of overall MSHR miss cycles
system.cpu.icache.overall_mshr_miss_latency::total      2833600                       # number of overall MSHR miss cycles
system.cpu.icache.demand_mshr_miss_rate::.switch_cpus.inst     0.000221                       # mshr miss rate for demand accesses
system.cpu.icache.demand_mshr_miss_rate::total     0.000221                       # mshr miss rate for demand accesses
system.cpu.icache.overall_mshr_miss_rate::.switch_cpus.inst     0.000221                       # mshr miss rate for overall accesses
system.cpu.icache.overall_mshr_miss_rate::total     0.000221                       # mshr miss rate for overall accesses
system.cpu.icache.demand_avg_mshr_miss_latency::.switch_cpus.inst 65897.674419                       # average overall mshr miss latency
system.cpu.icache.demand_avg_mshr_miss_latency::total 65897.674419                       # average overall mshr miss latency
system.cpu.icache.overall_avg_mshr_miss_latency::.switch_cpus.inst 65897.674419                       # average overall mshr miss latency
system.cpu.icache.overall_avg_mshr_miss_latency::total 65897.674419                       # average overall mshr miss latency
system.cpu.icache.replacements                      0                       # number of replacements
system.cpu.icache.ReadReq_hits::.cpu.inst           22                       # number of ReadReq hits
system.cpu.icache.ReadReq_hits::.switch_cpus.inst       194608                       # number of ReadReq hits
system.cpu.icache.ReadReq_hits::total          194630                       # number of ReadReq hits
system.cpu.icache.ReadReq_misses::.cpu.inst            3                       # number of ReadReq misses
system.cpu.icache.ReadReq_misses::.switch_cpus.inst           69                       # number of ReadReq misses
system.cpu.icache.ReadReq_misses::total            72                       # number of ReadReq misses
system.cpu.icache.ReadReq_miss_latency::.switch_cpus.inst      3977600                       # number of ReadReq miss cycles
system.cpu.icache.ReadReq_miss_latency::total      3977600                       # number of ReadReq miss cycles
system.cpu.icache.ReadReq_accesses::.cpu.inst           25                       # number of ReadReq accesses(hits+misses)
system.cpu.icache.ReadReq_accesses::.switch_cpus.inst       194677                       # number of ReadReq accesses(hits+misses)
system.cpu.icache.ReadReq_accesses::total       194702                       # number of ReadReq accesses(hits+misses)
system.cpu.icache.ReadReq_miss_rate::.cpu.inst     0.120000                       # miss rate for ReadReq accesses
system.cpu.icache.ReadReq_miss_rate::.switch_cpus.inst     0.000354                       # miss rate for ReadReq accesses
system.cpu.icache.ReadReq_miss_rate::total     0.000370                       # miss rate for ReadReq accesses
system.cpu.icache.ReadReq_avg_miss_latency::.switch_cpus.inst 57646.376812                       # average ReadReq miss latency
system.cpu.icache.ReadReq_avg_miss_latency::total 55244.444444                       # average ReadReq miss latency
system.cpu.icache.ReadReq_mshr_hits::.switch_cpus.inst           26                       # number of ReadReq MSHR hits
system.cpu.icache.ReadReq_mshr_hits::total           26                       # number of ReadReq MSHR hits
system.cpu.icache.ReadReq_mshr_misses::.switch_cpus.inst           43                       # number of ReadReq MSHR misses
system.cpu.icache.ReadReq_mshr_misses::total           43                       # number of ReadReq MSHR misses
system.cpu.icache.ReadReq_mshr_miss_latency::.switch_cpus.inst      2833600                       # number of ReadReq MSHR miss cycles
system.cpu.icache.ReadReq_mshr_miss_latency::total      2833600                       # number of ReadReq MSHR miss cycles
system.cpu.icache.ReadReq_mshr_miss_rate::.switch_cpus.inst     0.000221                       # mshr miss rate for ReadReq accesses
system.cpu.icache.ReadReq_mshr_miss_rate::total     0.000221                       # mshr miss rate for ReadReq accesses
system.cpu.icache.ReadReq_avg_mshr_miss_latency::.switch_cpus.inst 65897.674419                       # average ReadReq mshr miss latency
system.cpu.icache.ReadReq_avg_mshr_miss_latency::total 65897.674419                       # average ReadReq mshr miss latency
system.cpu.icache.power_state.pwrStateResidencyTicks::UNDEFINED 101428554400                       # Cumulative time (in ticks) in various power states
system.cpu.icache.tags.tagsinuse            45.689811                       # Cycle average of tags in use
system.cpu.icache.tags.total_refs                   0                       # Total number of references to valid blocks.
system.cpu.icache.tags.sampled_refs                 0                       # Sample count of references to valid blocks.
system.cpu.icache.tags.avg_refs                   nan                       # Average number of references to valid blocks.
system.cpu.icache.tags.warmup_cycle      101198938400                       # Cycle when the warmup percentage was hit.
system.cpu.icache.tags.occ_blocks::.cpu.inst     2.999932                       # Average occupied blocks per requestor
system.cpu.icache.tags.occ_blocks::.switch_cpus.inst    42.689879                       # Average occupied blocks per requestor
system.cpu.icache.tags.occ_percent::.cpu.inst     0.005859                       # Average percentage of cache occupancy
system.cpu.icache.tags.occ_percent::.switch_cpus.inst     0.083379                       # Average percentage of cache occupancy
system.cpu.icache.tags.occ_percent::total     0.089238                       # Average percentage of cache occupancy
system.cpu.icache.tags.occ_task_id_blocks::1024           46                       # Occupied blocks per task id
system.cpu.icache.tags.age_task_id_blocks_1024::2           46                       # Occupied blocks per task id
system.cpu.icache.tags.occ_task_id_percent::1024     0.089844                       # Percentage of cache occupancy per task id
system.cpu.icache.tags.tag_accesses           1557662                       # Number of tag accesses
system.cpu.icache.tags.data_accesses          1557662                       # Number of data accesses
system.cpu.icache.tags.power_state.pwrStateResidencyTicks::UNDEFINED 101428554400                       # Cumulative time (in ticks) in various power states
system.cpu.itb.instHits                             0                       # ITB inst hits
system.cpu.itb.instMisses                           0                       # ITB inst misses
system.cpu.itb.readHits                             0                       # DTB read hits
system.cpu.itb.readMisses                           0                       # DTB read misses
system.cpu.itb.writeHits                            0                       # DTB write hits
system.cpu.itb.writeMisses                          0                       # DTB write misses
system.cpu.itb.inserts                              0                       # Number of times an entry is inserted into the TLB
system.cpu.itb.flushTlb                             2                       # Number of times complete TLB was flushed
system.cpu.itb.flushTlbMva                          0                       # Number of times TLB was flushed by MVA
system.cpu.itb.flushTlbMvaAsid                      0                       # Number of times TLB was flushed by MVA & ASID
system.cpu.itb.flushTlbAsid                         0                       # Number of times TLB was flushed by ASID
system.cpu.itb.flushedEntries                       0                       # Number of entries that have been flushed from TLB
system.cpu.itb.alignFaults                          0                       # Number of TLB faults due to alignment restrictions
system.cpu.itb.prefetchFaults                       0                       # Number of TLB faults due to prefetch
system.cpu.itb.domainFaults                         0                       # Number of TLB faults due to domain restrictions
system.cpu.itb.permsFaults                          0                       # Number of TLB faults due to permissions restrictions
system.cpu.itb.readAccesses                         0                       # DTB read accesses
system.cpu.itb.writeAccesses                        0                       # DTB write accesses
system.cpu.itb.instAccesses                         0                       # ITB inst accesses
system.cpu.itb.hits                                 0                       # Total TLB (inst and data) hits
system.cpu.itb.misses                               0                       # Total TLB (inst and data) misses
system.cpu.itb.accesses                             0                       # Total TLB (inst and data) accesses
system.cpu.itb.stage2_mmu.stage2_tlb.instHits            0                       # ITB inst hits
system.cpu.itb.stage2_mmu.stage2_tlb.instMisses            0                       # ITB inst misses
system.cpu.itb.stage2_mmu.stage2_tlb.readHits            0                       # DTB read hits
system.cpu.itb.stage2_mmu.stage2_tlb.readMisses            0                       # DTB read misses
system.cpu.itb.stage2_mmu.stage2_tlb.writeHits            0                       # DTB write hits
system.cpu.itb.stage2_mmu.stage2_tlb.writeMisses            0                       # DTB write misses
system.cpu.itb.stage2_mmu.stage2_tlb.inserts            0                       # Number of times an entry is inserted into the TLB
system.cpu.itb.stage2_mmu.stage2_tlb.flushTlb            0                       # Number of times complete TLB was flushed
system.cpu.itb.stage2_mmu.stage2_tlb.flushTlbMva            0                       # Number of times TLB was flushed by MVA
system.cpu.itb.stage2_mmu.stage2_tlb.flushTlbMvaAsid            0                       # Number of times TLB was flushed by MVA & ASID
system.cpu.itb.stage2_mmu.stage2_tlb.flushTlbAsid            0                       # Number of times TLB was flushed by ASID
system.cpu.itb.stage2_mmu.stage2_tlb.flushedEntries            0                       # Number of entries that have been flushed from TLB
system.cpu.itb.stage2_mmu.stage2_tlb.alignFaults            0                       # Number of TLB faults due to alignment restrictions
system.cpu.itb.stage2_mmu.stage2_tlb.prefetchFaults            0                       # Number of TLB faults due to prefetch
system.cpu.itb.stage2_mmu.stage2_tlb.domainFaults            0                       # Number of TLB faults due to domain restrictions
system.cpu.itb.stage2_mmu.stage2_tlb.permsFaults            0                       # Number of TLB faults due to permissions restrictions
system.cpu.itb.stage2_mmu.stage2_tlb.readAccesses            0                       # DTB read accesses
system.cpu.itb.stage2_mmu.stage2_tlb.writeAccesses            0                       # DTB write accesses
system.cpu.itb.stage2_mmu.stage2_tlb.instAccesses            0                       # ITB inst accesses
system.cpu.itb.stage2_mmu.stage2_tlb.hits            0                       # Total TLB (inst and data) hits
system.cpu.itb.stage2_mmu.stage2_tlb.misses            0                       # Total TLB (inst and data) misses
system.cpu.itb.stage2_mmu.stage2_tlb.accesses            0                       # Total TLB (inst and data) accesses
system.cpu.itb.stage2_mmu.stage2_tlb.walker.walks            0                       # Table walker walks requested
system.cpu.itb.stage2_mmu.stage2_tlb.walker.requestOrigin_Requested::Data            0                       # Table walker requests started/completed, data/inst
system.cpu.itb.stage2_mmu.stage2_tlb.walker.requestOrigin_Requested::Inst            0                       # Table walker requests started/completed, data/inst
system.cpu.itb.stage2_mmu.stage2_tlb.walker.requestOrigin_Requested::total            0                       # Table walker requests started/completed, data/inst
system.cpu.itb.stage2_mmu.stage2_tlb.walker.requestOrigin_Completed::Data            0                       # Table walker requests started/completed, data/inst
system.cpu.itb.stage2_mmu.stage2_tlb.walker.requestOrigin_Completed::Inst            0                       # Table walker requests started/completed, data/inst
system.cpu.itb.stage2_mmu.stage2_tlb.walker.requestOrigin_Completed::total            0                       # Table walker requests started/completed, data/inst
system.cpu.itb.stage2_mmu.stage2_tlb.walker.requestOrigin::total            0                       # Table walker requests started/completed, data/inst
system.cpu.itb.stage2_mmu.stage2_tlb.walker.power_state.pwrStateResidencyTicks::UNDEFINED 101428554400                       # Cumulative time (in ticks) in various power states
system.cpu.itb.walker.walks                         0                       # Table walker walks requested
system.cpu.itb.walker.requestOrigin_Requested::Data            0                       # Table walker requests started/completed, data/inst
system.cpu.itb.walker.requestOrigin_Requested::Inst            0                       # Table walker requests started/completed, data/inst
system.cpu.itb.walker.requestOrigin_Requested::total            0                       # Table walker requests started/completed, data/inst
system.cpu.itb.walker.requestOrigin_Completed::Data            0                       # Table walker requests started/completed, data/inst
system.cpu.itb.walker.requestOrigin_Completed::Inst            0                       # Table walker requests started/completed, data/inst
system.cpu.itb.walker.requestOrigin_Completed::total            0                       # Table walker requests started/completed, data/inst
system.cpu.itb.walker.requestOrigin::total            0                       # Table walker requests started/completed, data/inst
[...]
system.switch_cpus.dtb.walker.requestOrigin_Requested::Data            0                       # Table walker requests started/completed, data/inst
system.switch_cpus.dtb.walker.requestOrigin_Requested::Inst            0                       # Table walker requests started/completed, data/inst
system.switch_cpus.dtb.walker.requestOrigin_Requested::total            0                       # Table walker requests started/completed, data/inst
system.switch_cpus.dtb.walker.requestOrigin_Completed::Data            0                       # Table walker requests started/completed, data/inst
system.switch_cpus.dtb.walker.requestOrigin_Completed::Inst            0                       # Table walker requests started/completed, data/inst
system.switch_cpus.dtb.walker.requestOrigin_Completed::total            0                       # Table walker requests started/completed, data/inst
system.switch_cpus.dtb.walker.requestOrigin::total            0                       # Table walker requests started/completed, data/inst
system.switch_cpus.dtb.walker.power_state.pwrStateResidencyTicks::UNDEFINED   2249231600                       # Cumulative time (in ticks) in various power states
system.switch_cpus.fetch.icacheStallCycles        28273                       # Number of cycles fetch is stalled on an Icache miss
system.switch_cpus.fetch.insts               13195802                       # Number of instructions fetch has processed
system.switch_cpus.fetch.branches             1561700                       # Number of branches that fetch encountered
system.switch_cpus.fetch.predictedBranches      1513844                       # Number of branches that fetch has predicted taken
system.switch_cpus.fetch.cycles               5566317                       # Number of cycles fetch has run and was not squashing or blocked
system.switch_cpus.fetch.squashCycles           56978                       # Number of cycles fetch has spent squashing
system.switch_cpus.fetch.cacheLines           1935321                       # Number of cache lines fetched
system.switch_cpus.fetch.nisnDist::samples      5623079                       # Number of instructions fetched each cycle (Total)
system.switch_cpus.fetch.nisnDist::mean      2.631993                       # Number of instructions fetched each cycle (Total)
system.switch_cpus.fetch.nisnDist::stdev     3.017581                       # Number of instructions fetched each cycle (Total)
system.switch_cpus.fetch.nisnDist::underflows            0      0.00%      0.00% # Number of instructions fetched each cycle (Total)
system.switch_cpus.fetch.nisnDist::0          2524614     44.90%     44.90% # Number of instructions fetched each cycle (Total)
system.switch_cpus.fetch.nisnDist::1           300177      5.34%     50.24% # Number of instructions fetched each cycle (Total)
system.switch_cpus.fetch.nisnDist::2           464262      8.26%     58.49% # Number of instructions fetched each cycle (Total)
system.switch_cpus.fetch.nisnDist::3           333940      5.94%     64.43% # Number of instructions fetched each cycle (Total)
system.switch_cpus.fetch.nisnDist::4           583037     10.37%     74.80% # Number of instructions fetched each cycle (Total)
system.switch_cpus.fetch.nisnDist::5           149731      2.66%     77.46% # Number of instructions fetched each cycle (Total)
system.switch_cpus.fetch.nisnDist::6           281178      5.00%     82.46% # Number of instructions fetched each cycle (Total)
system.switch_cpus.fetch.nisnDist::7            87605      1.56%     84.02% # Number of instructions fetched each cycle (Total)
system.switch_cpus.fetch.nisnDist::8           898535     15.98%    100.00% # Number of instructions fetched each cycle (Total)
system.switch_cpus.fetch.nisnDist::overflows            0      0.00%    100.00% # Number of instructions fetched each cycle (Total)
system.switch_cpus.fetch.nisnDist::min_value            0                       # Number of instructions fetched each cycle (Total)
system.switch_cpus.fetch.nisnDist::max_value            8                       # Number of instructions fetched each cycle (Total)
system.switch_cpus.fetch.nisnDist::total      5623079                       # Number of instructions fetched each cycle (Total)
system.switch_cpus.fetch.branchRate          0.277730                       # Number of branch fetches per cycle
system.switch_cpus.fetch.rate                2.346722                       # Number of inst fetches per cycle
system.switch_cpus.itb.instHits                     0                       # ITB inst hits
system.switch_cpus.itb.instMisses                   0                       # ITB inst misses
system.switch_cpus.itb.readHits                     0                       # DTB read hits
system.switch_cpus.itb.readMisses                   0                       # DTB read misses
system.switch_cpus.itb.writeHits                    0                       # DTB write hits
system.switch_cpus.itb.writeMisses                  0                       # DTB write misses
system.switch_cpus.itb.inserts                      0                       # Number of times an entry is inserted into the TLB
system.switch_cpus.itb.flushTlb                     0                       # Number of times complete TLB was flushed
system.switch_cpus.itb.flushTlbMva                  0                       # Number of times TLB was flushed by MVA
system.switch_cpus.itb.flushTlbMvaAsid              0                       # Number of times TLB was flushed by MVA & ASID
system.switch_cpus.itb.flushTlbAsid                 0                       # Number of times TLB was flushed by ASID
system.switch_cpus.itb.flushedEntries               0                       # Number of entries that have been flushed from TLB
system.switch_cpus.itb.alignFaults                  0                       # Number of TLB faults due to alignment restrictions
system.switch_cpus.itb.prefetchFaults               0                       # Number of TLB faults due to prefetch
system.switch_cpus.itb.domainFaults                 0                       # Number of TLB faults due to domain restrictions
system.switch_cpus.itb.permsFaults                  0                       # Number of TLB faults due to permissions restrictions
system.switch_cpus.itb.readAccesses                 0                       # DTB read accesses
system.switch_cpus.itb.writeAccesses                0                       # DTB write accesses
system.switch_cpus.itb.instAccesses                 0                       # ITB inst accesses
system.switch_cpus.itb.hits                         0                       # Total TLB (inst and data) hits
system.switch_cpus.itb.misses                       0                       # Total TLB (inst and data) misses
system.switch_cpus.itb.accesses                     0                       # Total TLB (inst and data) accesses
system.switch_cpus.itb.stage2_mmu.stage2_tlb.instHits            0                       # ITB inst hits
system.switch_cpus.itb.stage2_mmu.stage2_tlb.instMisses            0                       # ITB inst misses
system.switch_cpus.itb.stage2_mmu.stage2_tlb.readHits            0                       # DTB read hits
system.switch_cpus.itb.stage2_mmu.stage2_tlb.readMisses            0                       # DTB read misses
system.switch_cpus.itb.stage2_mmu.stage2_tlb.writeHits            0                       # DTB write hits
system.switch_cpus.itb.stage2_mmu.stage2_tlb.writeMisses            0                       # DTB write misses
system.switch_cpus.itb.stage2_mmu.stage2_tlb.inserts            0                       # Number of times an entry is inserted into the TLB
system.switch_cpus.itb.stage2_mmu.stage2_tlb.flushTlb            0                       # Number of times complete TLB was flushed
system.switch_cpus.itb.stage2_mmu.stage2_tlb.flushTlbMva            0                       # Number of times TLB was flushed by MVA
system.switch_cpus.itb.stage2_mmu.stage2_tlb.flushTlbMvaAsid            0                       # Number of times TLB was flushed by MVA & ASID
system.switch_cpus.itb.stage2_mmu.stage2_tlb.flushTlbAsid            0                       # Number of times TLB was flushed by ASID
system.switch_cpus.itb.stage2_mmu.stage2_tlb.flushedEntries            0                       # Number of entries that have been flushed from TLB
system.switch_cpus.itb.stage2_mmu.stage2_tlb.alignFaults            0                       # Number of TLB faults due to alignment restrictions
system.switch_cpus.itb.stage2_mmu.stage2_tlb.prefetchFaults            0                       # Number of TLB faults due to prefetch
system.switch_cpus.itb.stage2_mmu.stage2_tlb.domainFaults            0                       # Number of TLB faults due to domain restrictions
system.switch_cpus.itb.stage2_mmu.stage2_tlb.permsFaults            0                       # Number of TLB faults due to permissions restrictions
system.switch_cpus.itb.stage2_mmu.stage2_tlb.readAccesses            0                       # DTB read accesses
system.switch_cpus.itb.stage2_mmu.stage2_tlb.writeAccesses            0                       # DTB write accesses
system.switch_cpus.itb.stage2_mmu.stage2_tlb.instAccesses            0                       # ITB inst accesses
system.switch_cpus.itb.stage2_mmu.stage2_tlb.hits            0                       # Total TLB (inst and data) hits
system.switch_cpus.itb.stage2_mmu.stage2_tlb.misses            0                       # Total TLB (inst and data) misses
system.switch_cpus.itb.stage2_mmu.stage2_tlb.accesses            0                       # Total TLB (inst and data) accesses
system.switch_cpus.itb.stage2_mmu.stage2_tlb.walker.walks            0                       # Table walker walks requested
system.switch_cpus.itb.stage2_mmu.stage2_tlb.walker.requestOrigin_Requested::Data            0                       # Table walker requests started/completed, data/inst
system.switch_cpus.itb.stage2_mmu.stage2_tlb.walker.requestOrigin_Requested::Inst            0                       # Table walker requests started/completed, data/inst
system.switch_cpus.itb.stage2_mmu.stage2_tlb.walker.requestOrigin_Requested::total            0                       # Table walker requests started/completed, data/inst
system.switch_cpus.itb.stage2_mmu.stage2_tlb.walker.requestOrigin_Completed::Data            0                       # Table walker requests started/completed, data/inst
system.switch_cpus.itb.stage2_mmu.stage2_tlb.walker.requestOrigin_Completed::Inst            0                       # Table walker requests started/completed, data/inst
system.switch_cpus.itb.stage2_mmu.stage2_tlb.walker.requestOrigin_Completed::total            0                       # Table walker requests started/completed, data/inst
system.switch_cpus.itb.stage2_mmu.stage2_tlb.walker.requestOrigin::total            0                       # Table walker requests started/completed, data/inst
system.switch_cpus.itb.stage2_mmu.stage2_tlb.walker.power_state.pwrStateResidencyTicks::UNDEFINED   2249231600                       # Cumulative time (in ticks) in various power states
system.switch_cpus.itb.walker.walks                 0                       # Table walker walks requested
system.switch_cpus.itb.walker.requestOrigin_Requested::Data            0                       # Table walker requests started/completed, data/inst
system.switch_cpus.itb.walker.requestOrigin_Requested::Inst            0                       # Table walker requests started/completed, data/inst
system.switch_cpus.itb.walker.requestOrigin_Requested::total            0                       # Table walker requests started/completed, data/inst
system.switch_cpus.itb.walker.requestOrigin_Completed::Data            0                       # Table walker requests started/completed, data/inst
system.switch_cpus.itb.walker.requestOrigin_Completed::Inst            0                       # Table walker requests started/completed, data/inst
system.switch_cpus.itb.walker.requestOrigin_Completed::total            0                       # Table walker requests started/completed, data/inst
system.switch_cpus.itb.walker.requestOrigin::total            0                       # Table walker requests started/completed, data/inst
system.switch_cpus.itb.walker.power_state.pwrStateResidencyTicks::UNDEFINED   2249231600                       # Cumulative time (in ticks) in various power states
system.switch_cpus.lsq0.forwLoads             1845735                       # Number of loads that had data forwarded from stores
system.switch_cpus.lsq0.squashedLoads          626365                       # Number of loads squashed
system.switch_cpus.lsq0.ignoredResponses           18                       # Number of memory responses ignored because the instruction is squashed
system.switch_cpus.lsq0.memOrderViolation         1429                       # Number of memory ordering violations
system.switch_cpus.lsq0.squashedStores         542474                       # Number of stores squashed
system.switch_cpus.lsq0.rescheduledLoads       206968                       # Number of loads that were rescheduled
system.switch_cpus.lsq0.blockedByCache              0                       # Number of times an access to memory failed due to the cache being blocked
system.switch_cpus.power_state.pwrStateResidencyTicks::OFF   2249231600                       # Cumulative time (in ticks) in various power states
system.switch_cpus.rename.squashCycles          28489                       # Number of cycles rename is squashing
system.switch_cpus.rename.idleCycles          1052679                       # Number of cycles rename is idle
system.switch_cpus.rename.blockCycles         1321299                       # Number of cycles rename is blocking
system.switch_cpus.rename.serializeStallCycles          634                       # count of cycles rename stalledfor serializing inst
system.switch_cpus.rename.runCycles           1429827                       # Number of cycles rename is running
system.switch_cpus.rename.unblockCycles       1790151                       # Number of cycles rename is unblocking
system.switch_cpus.rename.renamedInsts       13563408                       # Number of instructions processed by rename
system.switch_cpus.rename.squashedInsts         61100                       # Number of squashed instructions processed by rename
system.switch_cpus.rename.IQFullEvents          15243                       # Number of times rename has blocked due to IQ full
system.switch_cpus.rename.SQFullEvents            533                       # Number of times rename has blocked due to SQ full
system.switch_cpus.rename.fullRegistersEvents      1678983                       # Number of times there has been no free registers
system.switch_cpus.rename.renamedOperands     12593610                       # Number of destination operands rename has renamed
system.switch_cpus.rename.lookups            19380532                       # Number of register rename lookups that rename has made
system.switch_cpus.rename.intLookups         17178634                       # Number of integer rename lookups
system.switch_cpus.rename.committedMaps      10443828                       # Number of HB maps that are committed
system.switch_cpus.rename.undoneMaps          2149794                       # Number of HB maps that are undone due to squashing
system.switch_cpus.rename.serializing              34                       # count of serializing insts renamed
system.switch_cpus.rename.tempSerializing            0                       # count of temporary serializing insts renamed
system.switch_cpus.rename.skidInsts           4669900                       # count of insts added to the skid buffer
system.switch_cpus.rob.reads                 16342328                       # The number of ROB reads
system.switch_cpus.rob.writes                27411526                       # The number of ROB writes
system.switch_cpus.thread_0.numInsts          9999997                       # Number of Instructions committed
system.switch_cpus.thread_0.numOps           11052124                       # Number of Ops committed
system.switch_cpus.thread_0.numMemRefs              0                       # Number of Memory References
system.tol2bus.trans_dist::ReadResp                38                       # Transaction distribution
system.tol2bus.trans_dist::WritebackDirty          166                       # Transaction distribution
system.tol2bus.trans_dist::WritebackClean            3                       # Transaction distribution
system.tol2bus.trans_dist::HardPFReq              308                       # Transaction distribution
system.tol2bus.trans_dist::ReadExReq              242                       # Transaction distribution
system.tol2bus.trans_dist::ReadExResp             242                       # Transaction distribution
system.tol2bus.trans_dist::ReadSharedReq           38                       # Transaction distribution
system.tol2bus.pkt_count_system.cpu.dcache.mem_side_port::system.l2.cpu_side_port          729                       # Packet count per connected requestor and responder (bytes)
system.tol2bus.pkt_count::total                   729                       # Packet count per connected requestor and responder (bytes)
system.tol2bus.pkt_size_system.cpu.dcache.mem_side_port::system.l2.cpu_side_port        57472                       # Cumulative packet size per connected requestor and responder (bytes)
system.tol2bus.pkt_size::total                  57472                       # Cumulative packet size per connected requestor and responder (bytes)
system.tol2bus.snoops                             308                       # Total snoops (count)
system.tol2bus.snoopTraffic                         0                       # Total snoop traffic (bytes)
system.tol2bus.snoop_fanout::samples              588                       # Request fanout histogram
system.tol2bus.snoop_fanout::mean            0.017007                       # Request fanout histogram
system.tol2bus.snoop_fanout::stdev           0.129407                       # Request fanout histogram
system.tol2bus.snoop_fanout::underflows             0      0.00%      0.00% # Request fanout histogram
system.tol2bus.snoop_fanout::0                    578     98.30%     98.30% # Request fanout histogram
system.tol2bus.snoop_fanout::1                     10      1.70%    100.00% # Request fanout histogram
system.tol2bus.snoop_fanout::2                      0      0.00%    100.00% # Request fanout histogram
system.tol2bus.snoop_fanout::3                      0      0.00%    100.00% # Request fanout histogram
system.tol2bus.snoop_fanout::4                      0      0.00%    100.00% # Request fanout histogram
system.tol2bus.snoop_fanout::overflows              0      0.00%    100.00% # Request fanout histogram
system.tol2bus.snoop_fanout::min_value              0                       # Request fanout histogram
system.tol2bus.snoop_fanout::max_value              1                       # Request fanout histogram
system.tol2bus.snoop_fanout::total                588                       # Request fanout histogram
system.tol2bus.power_state.pwrStateResidencyTicks::UNDEFINED   2249231600                       # Cumulative time (in ticks) in various power states
system.tol2bus.reqLayer0.occupancy             450000                       # Layer occupancy (ticks)
system.tol2bus.reqLayer0.utilization              0.0                       # Layer utilization (%)
system.tol2bus.respLayer1.occupancy            560000                       # Layer occupancy (ticks)
system.tol2bus.respLayer1.utilization             0.0                       # Layer utilization (%)
system.voltage_domain.voltage                       1                       # Voltage in Volts

---------- End Simulation Statistics   ----------
