
---------- Begin Simulation Statistics ----------
final_tick                               5442582529200                       # Number of ticks from beginning of simulation (restored from checkpoints and never reset)
host_inst_rate                                 204983                       # Simulator instruction rate (inst/s)
host_mem_usage                               17025236                       # Number of bytes of host memory used
host_op_rate                                   227983                       # Simulator op (including micro ops) rate (op/s)
host_seconds                                     4.88                       # Real time elapsed on the host
host_tick_rate                              118342145                       # Simulator tick rate (ticks/s)
sim_freq                                 1000000000000                       # Frequency of simulated ticks
sim_insts                                     1000024                       # Number of instructions simulated
sim_ops                                       1112244                       # Number of ops (including micro ops) simulated
sim_seconds                                  0.000577                       # Number of seconds simulated
sim_ticks                                   577348000                       # Number of ticks simulated
system.cpu.Branches                                 1                       # Number of branches fetched
system.cpu.committedInsts                          22                       # Number of instructions committed
system.cpu.committedOps                            26                       # Number of ops (including micro ops) committed
system.cpu.idle_fraction                            0                       # Percentage of idle cycles
system.cpu.not_idle_fraction                        1                       # Percentage of non-idle cycles
system.cpu.numCycles                               26                       # number of cpu cycles simulated
system.cpu.numWorkItemsCompleted                    0                       # number of work items this cpu completed
system.cpu.numWorkItemsStarted                      0                       # number of work items this cpu started
system.cpu.num_busy_cycles                         26                       # Number of busy cycles
system.cpu.num_cc_register_reads                    3                       # number of times the CC registers were read
system.cpu.num_cc_register_writes                   3                       # number of times the CC registers were written
system.cpu.num_conditional_control_insts            1                       # number of instructions that are conditional controls
system.cpu.num_fp_alu_accesses                      0                       # Number of float alu accesses
system.cpu.num_fp_insts                             0                       # number of float instructions
system.cpu.num_fp_register_reads                    0                       # number of times the floating registers were read
system.cpu.num_fp_register_writes                   0                       # number of times the floating registers were written
system.cpu.num_func_calls                           0                       # number of times a function call or return occured
system.cpu.num_idle_cycles                          0                       # Number of idle cycles
system.cpu.num_int_alu_accesses                    25                       # Number of integer alu accesses
system.cpu.num_int_insts                           25                       # number of integer instructions
system.cpu.num_int_register_reads                  42                       # number of times the integer registers were read
system.cpu.num_int_register_writes                 14                       # number of times the integer registers were written
system.cpu.num_load_insts                           6                       # Number of load instructions
system.cpu.num_mem_refs                            17                       # number of memory refs
system.cpu.num_store_insts                         11                       # Number of store instructions
system.cpu.num_vec_alu_accesses                     0                       # Number of vector alu accesses
system.cpu.num_vec_insts                            0                       # number of vector instructions
system.cpu.num_vec_register_reads                   0                       # number of times the vector registers were read
system.cpu.num_vec_register_writes                  0                       # number of times the vector registers were written
system.cpu.op_class::No_OpClass                     0      0.00%      0.00% # Class of executed instruction
system.cpu.op_class::IntAlu                         9     34.62%     34.62% # Class of executed instruction
system.cpu.op_class::IntMult                        0      0.00%     34.62% # Class of executed instruction
system.cpu.op_class::IntDiv                         0      0.00%     34.62% # Class of executed instruction
system.cpu.op_class::FloatAdd                       0      0.00%     34.62% # Class of executed instruction
system.cpu.op_class::FloatCmp                       0      0.00%     34.62% # Class of executed instruction
system.cpu.op_class::FloatCvt                       0      0.00%     34.62% # Class of executed instruction
system.cpu.op_class::FloatMult                      0      0.00%     34.62% # Class of executed instruction
system.cpu.op_class::FloatMultAcc                   0      0.00%     34.62% # Class of executed instruction
system.cpu.op_class::FloatDiv                       0      0.00%     34.62% # Class of executed instruction
system.cpu.op_class::FloatMisc                      0      0.00%     34.62% # Class of executed instruction
system.cpu.op_class::FloatSqrt                      0      0.00%     34.62% # Class of executed instruction
system.cpu.op_class::SimdAdd                        0      0.00%     34.62% # Class of executed instruction
system.cpu.op_class::SimdAddAcc                     0      0.00%     34.62% # Class of executed instruction
system.cpu.op_class::SimdAlu                        0      0.00%     34.62% # Class of executed instruction
system.cpu.op_class::SimdCmp                        0      0.00%     34.62% # Class of executed instruction
system.cpu.op_class::SimdCvt                        0      0.00%     34.62% # Class of executed instruction
system.cpu.op_class::SimdMisc                       0      0.00%     34.62% # Class of executed instruction
system.cpu.op_class::SimdMult                       0      0.00%     34.62% # Class of executed instruction
system.cpu.op_class::SimdMultAcc                    0      0.00%     34.62% # Class of executed instruction
system.cpu.op_class::SimdShift                      0      0.00%     34.62% # Class of executed instruction
system.cpu.op_class::SimdShiftAcc                   0      0.00%     34.62% # Class of executed instruction
system.cpu.op_class::SimdDiv                        0      0.00%     34.62% # Class of executed instruction
system.cpu.op_class::SimdSqrt                       0      0.00%     34.62% # Class of executed instruction
system.cpu.op_class::SimdFloatAdd                   0      0.00%     34.62% # Class of executed instruction
system.cpu.op_class::SimdFloatAlu                   0      0.00%     34.62% # Class of executed instruction
system.cpu.op_class::SimdFloatCmp                   0      0.00%     34.62% # Class of executed instruction
system.cpu.op_class::SimdFloatCvt                   0      0.00%     34.62% # Class of executed instruction
system.cpu.op_class::SimdFloatDiv                   0      0.00%     34.62% # Class of executed instruction
system.cpu.op_class::SimdFloatMisc                  0      0.00%     34.62% # Class of executed instruction
system.cpu.op_class::SimdFloatMult                  0      0.00%     34.62% # Class of executed instruction
system.cpu.op_class::SimdFloatMultAcc               0      0.00%     34.62% # Class of executed instruction
system.cpu.op_class::SimdFloatSqrt                  0      0.00%     34.62% # Class of executed instruction
system.cpu.op_class::SimdReduceAdd                  0      0.00%     34.62% # Class of executed instruction
system.cpu.op_class::SimdReduceAlu                  0      0.00%     34.62% # Class of executed instruction
system.cpu.op_class::SimdReduceCmp                  0      0.00%     34.62% # Class of executed instruction
system.cpu.op_class::SimdFloatReduceAdd             0      0.00%     34.62% # Class of executed instruction
system.cpu.op_class::SimdFloatReduceCmp             0      0.00%     34.62% # Class of executed instruction
system.cpu.op_class::SimdAes                        0      0.00%     34.62% # Class of executed instruction
system.cpu.op_class::SimdAesMix                     0      0.00%     34.62% # Class of executed instruction
system.cpu.op_class::SimdSha1Hash                   0      0.00%     34.62% # Class of executed instruction
system.cpu.op_class::SimdSha1Hash2                  0      0.00%     34.62% # Class of executed instruction
system.cpu.op_class::SimdSha256Hash                 0      0.00%     34.62% # Class of executed instruction
system.cpu.op_class::SimdSha256Hash2                0      0.00%     34.62% # Class of executed instruction
system.cpu.op_class::SimdShaSigma2                  0      0.00%     34.62% # Class of executed instruction
system.cpu.op_class::SimdShaSigma3                  0      0.00%     34.62% # Class of executed instruction
system.cpu.op_class::SimdPredAlu                    0      0.00%     34.62% # Class of executed instruction
system.cpu.op_class::MemRead                        6     23.08%     57.69% # Class of executed instruction
system.cpu.op_class::MemWrite                      11     42.31%    100.00% # Class of executed instruction
system.cpu.op_class::FloatMemRead                   0      0.00%    100.00% # Class of executed instruction
system.cpu.op_class::FloatMemWrite                  0      0.00%    100.00% # Class of executed instruction
system.cpu.op_class::IprAccess                      0      0.00%    100.00% # Class of executed instruction
system.cpu.op_class::InstPrefetch                   0      0.00%    100.00% # Class of executed instruction
system.cpu.op_class::total                         26                       # Class of executed instruction
system.cpu.workload.numSyscalls                     0                       # Number of system calls
system.membus.snoop_filter.hit_multi_requests            0                       # Number of requests hitting in the snoop filter with multiple (>1) holders of the requested data.
system.membus.snoop_filter.hit_multi_snoops            0                       # Number of snoops hitting in the snoop filter with multiple (>1) holders of the requested data.
system.membus.snoop_filter.hit_single_requests         5495                       # Number of requests hitting in the snoop filter with a single holder of the requested data.
system.membus.snoop_filter.hit_single_snoops            0                       # Number of snoops hitting in the snoop filter with a single holder of the requested data.
system.membus.snoop_filter.tot_requests         19382                       # Total number of requests made to the snoop filter.
system.membus.snoop_filter.tot_snoops               0                       # Total number of snoops made to the snoop filter.
system.switch_cpus.cc_regfile_reads            329808                       # number of cc regfile reads
system.switch_cpus.cc_regfile_writes           335337                       # number of cc regfile writes
system.switch_cpus.committedInsts             1000002                       # Number of Instructions Simulated
system.switch_cpus.committedOps               1112218                       # Number of Ops (including micro ops) Simulated
system.switch_cpus.cpi                       1.443341                       # CPI: Cycles Per Instruction
system.switch_cpus.cpi_total                 1.443341                       # CPI: Total CPI of All Threads
system.switch_cpus.idleCycles                    1018                       # Total number of cycles that the CPU has spent unscheduled due to idling
system.switch_cpus.iew.branchMispredicts        11512                       # Number of branch mispredicts detected at execute
system.switch_cpus.iew.exec_branches           153133                       # Number of branches executed
system.switch_cpus.iew.exec_nop                    76                       # number of nop insts executed
system.switch_cpus.iew.exec_rate             1.068872                       # Inst execution rate
system.switch_cpus.iew.exec_refs               676915                       # number of memory reference insts executed
system.switch_cpus.iew.exec_stores             350863                       # Number of stores executed
system.switch_cpus.iew.exec_swp                     0                       # number of swp insts executed
system.switch_cpus.iew.iewBlockCycles          235611                       # Number of cycles IEW is blocking
system.switch_cpus.iew.iewDispLoadInsts        376255                       # Number of dispatched load instructions
system.switch_cpus.iew.iewDispNonSpecInsts            0                       # Number of dispatched non-speculative instructions
system.switch_cpus.iew.iewDispSquashedInsts            0                       # Number of squashed instructions skipped by dispatch
system.switch_cpus.iew.iewDispStoreInsts       518088                       # Number of dispatched store instructions
system.switch_cpus.iew.iewDispatchedInsts      2032258                       # Number of instructions dispatched to IQ
system.switch_cpus.iew.iewExecLoadInsts        326052                       # Number of load instructions executed
system.switch_cpus.iew.iewExecSquashedInsts        21613                       # Number of squashed instructions skipped in execute
system.switch_cpus.iew.iewExecutedInsts       1542750                       # Number of executed instructions
system.switch_cpus.iew.iewIQFullEvents              6                       # Number of times the IQ has become full, causing a stall
system.switch_cpus.iew.iewIdleCycles                0                       # Number of cycles IEW is idle
system.switch_cpus.iew.iewLSQFullEvents           315                       # Number of times the LSQ has become full, causing a stall
system.switch_cpus.iew.iewSquashCycles          10472                       # Number of cycles IEW is squashing
system.switch_cpus.iew.iewUnblockCycles           327                       # Number of cycles IEW is unblocking
system.switch_cpus.iew.memOrderViolationEvents            2                       # Number of memory order violations
system.switch_cpus.iew.predictedNotTakenIncorrect         7864                       # Number of branches that were predicted not taken incorrectly
system.switch_cpus.iew.predictedTakenIncorrect         3648                       # Number of branches that were predicted taken incorrectly
system.switch_cpus.iew.wb_consumers           1917885                       # num instructions consuming a value
system.switch_cpus.iew.wb_count               1458893                       # cumulative count of insts written-back
system.switch_cpus.iew.wb_fanout             0.467208                       # average fanout of values written-back
system.switch_cpus.iew.wb_producers            896052                       # num instructions producing a value
system.switch_cpus.iew.wb_rate               1.010773                       # insts written-back per cycle
system.switch_cpus.iew.wb_sent                1464840                       # cumulative count of insts sent to commit
system.switch_cpus.int_regfile_reads          2250756                       # number of integer regfile reads
system.switch_cpus.int_regfile_writes          969491                       # number of integer regfile writes
system.switch_cpus.ipc                       0.692837                       # IPC: Instructions Per Cycle
system.switch_cpus.ipc_total                 0.692837                       # IPC: Total IPC of All Threads
system.switch_cpus.iq.FU_type_0::No_OpClass            2      0.00%      0.00% # Type of FU issued
system.switch_cpus.iq.FU_type_0::IntAlu        866182     55.37%     55.37% # Type of FU issued
system.switch_cpus.iq.FU_type_0::IntMult            0      0.00%     55.37% # Type of FU issued
system.switch_cpus.iq.FU_type_0::IntDiv            10      0.00%     55.37% # Type of FU issued
system.switch_cpus.iq.FU_type_0::FloatAdd            0      0.00%     55.37% # Type of FU issued
system.switch_cpus.iq.FU_type_0::FloatCmp            0      0.00%     55.37% # Type of FU issued
system.switch_cpus.iq.FU_type_0::FloatCvt            0      0.00%     55.37% # Type of FU issued
system.switch_cpus.iq.FU_type_0::FloatMult            0      0.00%     55.37% # Type of FU issued
system.switch_cpus.iq.FU_type_0::FloatMultAcc            0      0.00%     55.37% # Type of FU issued
system.switch_cpus.iq.FU_type_0::FloatDiv            0      0.00%     55.37% # Type of FU issued
system.switch_cpus.iq.FU_type_0::FloatMisc            0      0.00%     55.37% # Type of FU issued
system.switch_cpus.iq.FU_type_0::FloatSqrt            0      0.00%     55.37% # Type of FU issued
system.switch_cpus.iq.FU_type_0::SimdAdd            0      0.00%     55.37% # Type of FU issued
system.switch_cpus.iq.FU_type_0::SimdAddAcc            0      0.00%     55.37% # Type of FU issued
system.switch_cpus.iq.FU_type_0::SimdAlu            0      0.00%     55.37% # Type of FU issued
system.switch_cpus.iq.FU_type_0::SimdCmp            0      0.00%     55.37% # Type of FU issued
system.switch_cpus.iq.FU_type_0::SimdCvt            0      0.00%     55.37% # Type of FU issued
system.switch_cpus.iq.FU_type_0::SimdMisc            0      0.00%     55.37% # Type of FU issued
system.switch_cpus.iq.FU_type_0::SimdMult            0      0.00%     55.37% # Type of FU issued
system.switch_cpus.iq.FU_type_0::SimdMultAcc            0      0.00%     55.37% # Type of FU issued
system.switch_cpus.iq.FU_type_0::SimdShift            0      0.00%     55.37% # Type of FU issued
system.switch_cpus.iq.FU_type_0::SimdShiftAcc            0      0.00%     55.37% # Type of FU issued
system.switch_cpus.iq.FU_type_0::SimdDiv            0      0.00%     55.37% # Type of FU issued
system.switch_cpus.iq.FU_type_0::SimdSqrt            0      0.00%     55.37% # Type of FU issued
system.switch_cpus.iq.FU_type_0::SimdFloatAdd            0      0.00%     55.37% # Type of FU issued
system.switch_cpus.iq.FU_type_0::SimdFloatAlu            0      0.00%     55.37% # Type of FU issued
system.switch_cpus.iq.FU_type_0::SimdFloatCmp            0      0.00%     55.37% # Type of FU issued
system.switch_cpus.iq.FU_type_0::SimdFloatCvt            0      0.00%     55.37% # Type of FU issued
system.switch_cpus.iq.FU_type_0::SimdFloatDiv            0      0.00%     55.37% # Type of FU issued
system.switch_cpus.iq.FU_type_0::SimdFloatMisc            0      0.00%     55.37% # Type of FU issued
system.switch_cpus.iq.FU_type_0::SimdFloatMult            0      0.00%     55.37% # Type of FU issued
system.switch_cpus.iq.FU_type_0::SimdFloatMultAcc            0      0.00%     55.37% # Type of FU issued
system.switch_cpus.iq.FU_type_0::SimdFloatSqrt            0      0.00%     55.37% # Type of FU issued
system.switch_cpus.iq.FU_type_0::SimdReduceAdd            0      0.00%     55.37% # Type of FU issued
system.switch_cpus.iq.FU_type_0::SimdReduceAlu            0      0.00%     55.37% # Type of FU issued
system.switch_cpus.iq.FU_type_0::SimdReduceCmp            0      0.00%     55.37% # Type of FU issued
system.switch_cpus.iq.FU_type_0::SimdFloatReduceAdd            0      0.00%     55.37% # Type of FU issued
system.switch_cpus.iq.FU_type_0::SimdFloatReduceCmp            0      0.00%     55.37% # Type of FU issued
system.switch_cpus.iq.FU_type_0::SimdAes            0      0.00%     55.37% # Type of FU issued
system.switch_cpus.iq.FU_type_0::SimdAesMix            0      0.00%     55.37% # Type of FU issued
system.switch_cpus.iq.FU_type_0::SimdSha1Hash            0      0.00%     55.37% # Type of FU issued
system.switch_cpus.iq.FU_type_0::SimdSha1Hash2            0      0.00%     55.37% # Type of FU issued
system.switch_cpus.iq.FU_type_0::SimdSha256Hash            0      0.00%     55.37% # Type of FU issued
system.switch_cpus.iq.FU_type_0::SimdSha256Hash2            0      0.00%     55.37% # Type of FU issued
system.switch_cpus.iq.FU_type_0::SimdShaSigma2            0      0.00%     55.37% # Type of FU issued
system.switch_cpus.iq.FU_type_0::SimdShaSigma3            0      0.00%     55.37% # Type of FU issued
system.switch_cpus.iq.FU_type_0::SimdPredAlu            0      0.00%     55.37% # Type of FU issued
system.switch_cpus.iq.FU_type_0::MemRead       338743     21.65%     77.02% # Type of FU issued
system.switch_cpus.iq.FU_type_0::MemWrite       359432     22.98%    100.00% # Type of FU issued
system.switch_cpus.iq.FU_type_0::FloatMemRead            0      0.00%    100.00% # Type of FU issued
system.switch_cpus.iq.FU_type_0::FloatMemWrite            0      0.00%    100.00% # Type of FU issued
system.switch_cpus.iq.FU_type_0::IprAccess            0      0.00%    100.00% # Type of FU issued
system.switch_cpus.iq.FU_type_0::InstPrefetch            0      0.00%    100.00% # Type of FU issued
system.switch_cpus.iq.FU_type_0::total        1564369                       # Type of FU issued
system.switch_cpus.iq.fp_alu_accesses               0                       # Number of floating point alu accesses
system.switch_cpus.iq.fp_inst_queue_reads            0                       # Number of floating instruction queue reads
system.switch_cpus.iq.fp_inst_queue_wakeup_accesses            0                       # Number of floating instruction queue wakeup accesses
system.switch_cpus.iq.fp_inst_queue_writes            0                       # Number of floating instruction queue writes
system.switch_cpus.iq.fu_busy_cnt              945221                       # FU busy when requested
system.switch_cpus.iq.fu_busy_rate           0.604219                       # FU busy rate (busy events/executed inst)
system.switch_cpus.iq.fu_full::No_OpClass            0      0.00%      0.00% # attempts to use FU when none available
system.switch_cpus.iq.fu_full::IntAlu          379475     40.15%     40.15% # attempts to use FU when none available
system.switch_cpus.iq.fu_full::IntMult              0      0.00%     40.15% # attempts to use FU when none available
system.switch_cpus.iq.fu_full::IntDiv               0      0.00%     40.15% # attempts to use FU when none available
system.switch_cpus.iq.fu_full::FloatAdd             0      0.00%     40.15% # attempts to use FU when none available
system.switch_cpus.iq.fu_full::FloatCmp             0      0.00%     40.15% # attempts to use FU when none available
system.switch_cpus.iq.fu_full::FloatCvt             0      0.00%     40.15% # attempts to use FU when none available
system.switch_cpus.iq.fu_full::FloatMult            0      0.00%     40.15% # attempts to use FU when none available
system.switch_cpus.iq.fu_full::FloatMultAcc            0      0.00%     40.15% # attempts to use FU when none available
system.switch_cpus.iq.fu_full::FloatDiv             0      0.00%     40.15% # attempts to use FU when none available
system.switch_cpus.iq.fu_full::FloatMisc            0      0.00%     40.15% # attempts to use FU when none available
system.switch_cpus.iq.fu_full::FloatSqrt            0      0.00%     40.15% # attempts to use FU when none available
system.switch_cpus.iq.fu_full::SimdAdd              0      0.00%     40.15% # attempts to use FU when none available
system.switch_cpus.iq.fu_full::SimdAddAcc            0      0.00%     40.15% # attempts to use FU when none available
system.switch_cpus.iq.fu_full::SimdAlu              0      0.00%     40.15% # attempts to use FU when none available
system.switch_cpus.iq.fu_full::SimdCmp              0      0.00%     40.15% # attempts to use FU when none available
system.switch_cpus.iq.fu_full::SimdCvt              0      0.00%     40.15% # attempts to use FU when none available
system.switch_cpus.iq.fu_full::SimdMisc             0      0.00%     40.15% # attempts to use FU when none available
system.switch_cpus.iq.fu_full::SimdMult             0      0.00%     40.15% # attempts to use FU when none available
system.switch_cpus.iq.fu_full::SimdMultAcc            0      0.00%     40.15% # attempts to use FU when none available
system.switch_cpus.iq.fu_full::SimdShift            0      0.00%     40.15% # attempts to use FU when none available
system.switch_cpus.iq.fu_full::SimdShiftAcc            0      0.00%     40.15% # attempts to use FU when none available
system.switch_cpus.iq.fu_full::SimdDiv              0      0.00%     40.15% # attempts to use FU when none available
system.switch_cpus.iq.fu_full::SimdSqrt             0      0.00%     40.15% # attempts to use FU when none available
system.switch_cpus.iq.fu_full::SimdFloatAdd            0      0.00%     40.15% # attempts to use FU when none available
system.switch_cpus.iq.fu_full::SimdFloatAlu            0      0.00%     40.15% # attempts to use FU when none available
system.switch_cpus.iq.fu_full::SimdFloatCmp            0      0.00%     40.15% # attempts to use FU when none available
system.switch_cpus.iq.fu_full::SimdFloatCvt            0      0.00%     40.15% # attempts to use FU when none available
system.switch_cpus.iq.fu_full::SimdFloatDiv            0      0.00%     40.15% # attempts to use FU when none available
system.switch_cpus.iq.fu_full::SimdFloatMisc            0      0.00%     40.15% # attempts to use FU when none available
system.switch_cpus.iq.fu_full::SimdFloatMult            0      0.00%     40.15% # attempts to use FU when none available
system.switch_cpus.iq.fu_full::SimdFloatMultAcc            0      0.00%     40.15% # attempts to use FU when none available
system.switch_cpus.iq.fu_full::SimdFloatSqrt            0      0.00%     40.15% # attempts to use FU when none available
system.switch_cpus.iq.fu_full::SimdReduceAdd            0      0.00%     40.15% # attempts to use FU when none available
system.switch_cpus.iq.fu_full::SimdReduceAlu            0      0.00%     40.15% # attempts to use FU when none available
system.switch_cpus.iq.fu_full::SimdReduceCmp            0      0.00%     40.15% # attempts to use FU when none available
system.switch_cpus.iq.fu_full::SimdFloatReduceAdd            0      0.00%     40.15% # attempts to use FU when none available
system.switch_cpus.iq.fu_full::SimdFloatReduceCmp            0      0.00%     40.15% # attempts to use FU when none available
system.switch_cpus.iq.fu_full::SimdAes              0      0.00%     40.15% # attempts to use FU when none available
system.switch_cpus.iq.fu_full::SimdAesMix            0      0.00%     40.15% # attempts to use FU when none available
system.switch_cpus.iq.fu_full::SimdSha1Hash            0      0.00%     40.15% # attempts to use FU when none available
system.switch_cpus.iq.fu_full::SimdSha1Hash2            0      0.00%     40.15% # attempts to use FU when none available
system.switch_cpus.iq.fu_full::SimdSha256Hash            0      0.00%     40.15% # attempts to use FU when none available
system.switch_cpus.iq.fu_full::SimdSha256Hash2            0      0.00%     40.15% # attempts to use FU when none available
system.switch_cpus.iq.fu_full::SimdShaSigma2            0      0.00%     40.15% # attempts to use FU when none available
system.switch_cpus.iq.fu_full::SimdShaSigma3            0      0.00%     40.15% # attempts to use FU when none available
system.switch_cpus.iq.fu_full::SimdPredAlu            0      0.00%     40.15% # attempts to use FU when none available
system.switch_cpus.iq.fu_full::MemRead         273034     28.89%     69.03% # attempts to use FU when none available
system.switch_cpus.iq.fu_full::MemWrite        292712     30.97%    100.00% # attempts to use FU when none available
system.switch_cpus.iq.fu_full::FloatMemRead            0      0.00%    100.00% # attempts to use FU when none available
system.switch_cpus.iq.fu_full::FloatMemWrite            0      0.00%    100.00% # attempts to use FU when none available
system.switch_cpus.iq.fu_full::IprAccess            0      0.00%    100.00% # attempts to use FU when none available
system.switch_cpus.iq.fu_full::InstPrefetch            0      0.00%    100.00% # attempts to use FU when none available
system.switch_cpus.iq.int_alu_accesses        2509588                       # Number of integer alu accesses
system.switch_cpus.iq.int_inst_queue_reads      5593674                       # Number of integer instruction queue reads
system.switch_cpus.iq.int_inst_queue_wakeup_accesses      1458893                       # Number of integer instruction queue wakeup accesses
system.switch_cpus.iq.int_inst_queue_writes      2952032                       # Number of integer instruction queue writes
system.switch_cpus.iq.iqInstsAdded            2032182                       # Number of instructions added to the IQ (excludes non-spec)
system.switch_cpus.iq.iqInstsIssued           1564369                       # Number of instructions issued
system.switch_cpus.iq.iqSquashedInstsExamined       919848                       # Number of squashed instructions iterated over during squash; mainly for profiling
system.switch_cpus.iq.iqSquashedInstsIssued        77395                       # Number of squashed instructions issued
system.switch_cpus.iq.iqSquashedOperandsExamined      1004469                       # Number of squashed operands that are examined and possibly removed from graph
system.switch_cpus.iq.issued_per_cycle::samples      1442326                       # Number of insts issued each cycle
system.switch_cpus.iq.issued_per_cycle::mean     1.084615                       # Number of insts issued each cycle
system.switch_cpus.iq.issued_per_cycle::stdev     1.581665                       # Number of insts issued each cycle
system.switch_cpus.iq.issued_per_cycle::underflows            0      0.00%      0.00% # Number of insts issued each cycle
system.switch_cpus.iq.issued_per_cycle::0       918574     63.69%     63.69% # Number of insts issued each cycle
system.switch_cpus.iq.issued_per_cycle::1        74975      5.20%     68.89% # Number of insts issued each cycle
system.switch_cpus.iq.issued_per_cycle::2        94767      6.57%     75.46% # Number of insts issued each cycle
system.switch_cpus.iq.issued_per_cycle::3       116184      8.06%     83.51% # Number of insts issued each cycle
system.switch_cpus.iq.issued_per_cycle::4       237822     16.49%    100.00% # Number of insts issued each cycle
system.switch_cpus.iq.issued_per_cycle::5            4      0.00%    100.00% # Number of insts issued each cycle
system.switch_cpus.iq.issued_per_cycle::6            0      0.00%    100.00% # Number of insts issued each cycle
system.switch_cpus.iq.issued_per_cycle::7            0      0.00%    100.00% # Number of insts issued each cycle
system.switch_cpus.iq.issued_per_cycle::8            0      0.00%    100.00% # Number of insts issued each cycle
system.switch_cpus.iq.issued_per_cycle::overflows            0      0.00%    100.00% # Number of insts issued each cycle
system.switch_cpus.iq.issued_per_cycle::min_value            0                       # Number of insts issued each cycle
system.switch_cpus.iq.issued_per_cycle::max_value            5                       # Number of insts issued each cycle
system.switch_cpus.iq.issued_per_cycle::total      1442326                       # Number of insts issued each cycle
system.switch_cpus.iq.rate                   1.083850                       # Inst issue rate
system.switch_cpus.iq.vec_alu_accesses              0                       # Number of vector alu accesses
system.switch_cpus.iq.vec_inst_queue_reads            0                       # Number of vector instruction queue reads
system.switch_cpus.iq.vec_inst_queue_wakeup_accesses            0                       # Number of vector instruction queue wakeup accesses
system.switch_cpus.iq.vec_inst_queue_writes            0                       # Number of vector instruction queue writes
system.switch_cpus.memDep0.conflictingLoads           32                       # Number of conflicting loads.
system.switch_cpus.memDep0.conflictingStores            0                       # Number of conflicting stores.
system.switch_cpus.memDep0.insertedLoads       376255                       # Number of loads inserted to the mem dependence unit.
system.switch_cpus.memDep0.insertedStores       518088                       # Number of stores inserted to the mem dependence unit.
system.switch_cpus.misc_regfile_reads         2745337                       # number of misc regfile reads
system.switch_cpus.misc_regfile_writes              1                       # number of misc regfile writes
system.switch_cpus.numCycles                  1443344                       # number of cpu cycles simulated
system.switch_cpus.numWorkItemsCompleted            0                       # number of work items this cpu completed
system.switch_cpus.numWorkItemsStarted              0                       # number of work items this cpu started
system.switch_cpus.timesIdled                       9                       # Number of times that the entire CPU went into an idle state and unscheduled itself
system.switch_cpus.vec_regfile_writes              44                       # number of vector regfile writes
system.tol2bus.snoop_filter.hit_multi_requests            0                       # Number of requests hitting in the snoop filter with multiple (>1) holders of the requested data.
system.tol2bus.snoop_filter.hit_multi_snoops            0                       # Number of snoops hitting in the snoop filter with multiple (>1) holders of the requested data.
system.tol2bus.snoop_filter.hit_single_requests        14676                       # Number of requests hitting in the snoop filter with a single holder of the requested data.
system.tol2bus.snoop_filter.hit_single_snoops            0                       # Number of snoops hitting in the snoop filter with a single holder of the requested data.
system.tol2bus.snoop_filter.tot_requests        29620                       # Total number of requests made to the snoop filter.
system.tol2bus.snoop_filter.tot_snoops              0                       # Total number of snoops made to the snoop filter.
system.clk_domain.clock                          1000                       # Clock period in ticks
system.cpu.dcache.demand_hits::.cpu.data           15                       # number of demand (read+write) hits
system.cpu.dcache.demand_hits::.switch_cpus.data       511972                       # number of demand (read+write) hits
system.cpu.dcache.demand_hits::total           511987                       # number of demand (read+write) hits
system.cpu.dcache.overall_hits::.cpu.data           15                       # number of overall hits
system.cpu.dcache.overall_hits::.switch_cpus.data       511972                       # number of overall hits
system.cpu.dcache.overall_hits::total          511987                       # number of overall hits
system.cpu.dcache.demand_misses::.cpu.data            2                       # number of demand (read+write) misses
system.cpu.dcache.demand_misses::.switch_cpus.data        57678                       # number of demand (read+write) misses
system.cpu.dcache.demand_misses::total          57680                       # number of demand (read+write) misses
system.cpu.dcache.overall_misses::.cpu.data            2                       # number of overall misses
system.cpu.dcache.overall_misses::.switch_cpus.data        57678                       # number of overall misses
system.cpu.dcache.overall_misses::total         57680                       # number of overall misses
system.cpu.dcache.demand_miss_latency::.switch_cpus.data   4232020799                       # number of demand (read+write) miss cycles
system.cpu.dcache.demand_miss_latency::total   4232020799                       # number of demand (read+write) miss cycles
system.cpu.dcache.overall_miss_latency::.switch_cpus.data   4232020799                       # number of overall miss cycles
system.cpu.dcache.overall_miss_latency::total   4232020799                       # number of overall miss cycles
system.cpu.dcache.demand_accesses::.cpu.data           17                       # number of demand (read+write) accesses
system.cpu.dcache.demand_accesses::.switch_cpus.data       569650                       # number of demand (read+write) accesses
system.cpu.dcache.demand_accesses::total       569667                       # number of demand (read+write) accesses
system.cpu.dcache.overall_accesses::.cpu.data           17                       # number of overall (read+write) accesses
system.cpu.dcache.overall_accesses::.switch_cpus.data       569650                       # number of overall (read+write) accesses
system.cpu.dcache.overall_accesses::total       569667                       # number of overall (read+write) accesses
system.cpu.dcache.demand_miss_rate::.cpu.data     0.117647                       # miss rate for demand accesses
system.cpu.dcache.demand_miss_rate::.switch_cpus.data     0.101252                       # miss rate for demand accesses
system.cpu.dcache.demand_miss_rate::total     0.101252                       # miss rate for demand accesses
system.cpu.dcache.overall_miss_rate::.cpu.data     0.117647                       # miss rate for overall accesses
system.cpu.dcache.overall_miss_rate::.switch_cpus.data     0.101252                       # miss rate for overall accesses
system.cpu.dcache.overall_miss_rate::total     0.101252                       # miss rate for overall accesses
system.cpu.dcache.demand_avg_miss_latency::.switch_cpus.data 73373.223742                       # average overall miss latency
system.cpu.dcache.demand_avg_miss_latency::total 73370.679594                       # average overall miss latency
system.cpu.dcache.overall_avg_miss_latency::.switch_cpus.data 73373.223742                       # average overall miss latency
system.cpu.dcache.overall_avg_miss_latency::total 73370.679594                       # average overall miss latency
system.cpu.dcache.blocked_cycles::no_mshrs       134457                       # number of cycles access was blocked
system.cpu.dcache.blocked_cycles::no_targets       353269                       # number of cycles access was blocked
system.cpu.dcache.blocked::no_mshrs              2636                       # number of cycles access was blocked
system.cpu.dcache.blocked::no_targets            1997                       # number of cycles access was blocked
system.cpu.dcache.avg_blocked_cycles::no_mshrs    51.007967                       # average number of cycles each access was blocked
system.cpu.dcache.avg_blocked_cycles::no_targets   176.899850                       # average number of cycles each access was blocked
system.cpu.dcache.writebacks::.writebacks        14676                       # number of writebacks
system.cpu.dcache.writebacks::total             14676                       # number of writebacks
system.cpu.dcache.demand_mshr_hits::.switch_cpus.data        42748                       # number of demand (read+write) MSHR hits
system.cpu.dcache.demand_mshr_hits::total        42748                       # number of demand (read+write) MSHR hits
system.cpu.dcache.overall_mshr_hits::.switch_cpus.data        42748                       # number of overall MSHR hits
system.cpu.dcache.overall_mshr_hits::total        42748                       # number of overall MSHR hits
system.cpu.dcache.demand_mshr_misses::.switch_cpus.data        14930                       # number of demand (read+write) MSHR misses
system.cpu.dcache.demand_mshr_misses::total        14930                       # number of demand (read+write) MSHR misses
system.cpu.dcache.overall_mshr_misses::.switch_cpus.data        14930                       # number of overall MSHR misses
system.cpu.dcache.overall_mshr_misses::total        14930                       # number of overall MSHR misses
system.cpu.dcache.demand_mshr_miss_latency::.switch_cpus.data   1047661599                       # number of demand (read+write) MSHR miss cycles
system.cpu.dcache.demand_mshr_miss_latency::total   1047661599                       # number of demand (read+write) MSHR miss cycles
system.cpu.dcache.overall_mshr_miss_latency::.switch_cpus.data   1047661599                       # number of overall MSHR miss cycles
system.cpu.dcache.overall_mshr_miss_latency::total   1047661599                       # number of overall MSHR miss cycles
system.cpu.dcache.demand_mshr_miss_rate::.switch_cpus.data     0.026209                       # mshr miss rate for demand accesses
system.cpu.dcache.demand_mshr_miss_rate::total     0.026208                       # mshr miss rate for demand accesses
system.cpu.dcache.overall_mshr_miss_rate::.switch_cpus.data     0.026209                       # mshr miss rate for overall accesses
system.cpu.dcache.overall_mshr_miss_rate::total     0.026208                       # mshr miss rate for overall accesses
system.cpu.dcache.demand_avg_mshr_miss_latency::.switch_cpus.data 70171.573945                       # average overall mshr miss latency
system.cpu.dcache.demand_avg_mshr_miss_latency::total 70171.573945                       # average overall mshr miss latency
system.cpu.dcache.overall_avg_mshr_miss_latency::.switch_cpus.data 70171.573945                       # average overall mshr miss latency
system.cpu.dcache.overall_avg_mshr_miss_latency::total 70171.573945                       # average overall mshr miss latency
system.cpu.dcache.replacements                  14676                       # number of replacements
system.cpu.dcache.ReadReq_hits::.cpu.data            5                       # number of ReadReq hits
system.cpu.dcache.ReadReq_hits::.switch_cpus.data       219232                       # number of ReadReq hits
system.cpu.dcache.ReadReq_hits::total          219237                       # number of ReadReq hits
system.cpu.dcache.ReadReq_misses::.cpu.data            1                       # number of ReadReq misses
system.cpu.dcache.ReadReq_misses::.switch_cpus.data        53917                       # number of ReadReq misses
system.cpu.dcache.ReadReq_misses::total         53918                       # number of ReadReq misses
system.cpu.dcache.ReadReq_miss_latency::.switch_cpus.data   3905120000                       # number of ReadReq miss cycles
system.cpu.dcache.ReadReq_miss_latency::total   3905120000                       # number of ReadReq miss cycles
system.cpu.dcache.ReadReq_accesses::.cpu.data            6                       # number of ReadReq accesses(hits+misses)
system.cpu.dcache.ReadReq_accesses::.switch_cpus.data       273149                       # number of ReadReq accesses(hits+misses)
system.cpu.dcache.ReadReq_accesses::total       273155                       # number of ReadReq accesses(hits+misses)
system.cpu.dcache.ReadReq_miss_rate::.cpu.data     0.166667                       # miss rate for ReadReq accesses
system.cpu.dcache.ReadReq_miss_rate::.switch_cpus.data     0.197390                       # miss rate for ReadReq accesses
system.cpu.dcache.ReadReq_miss_rate::total     0.197390                       # miss rate for ReadReq accesses
system.cpu.dcache.ReadReq_avg_miss_latency::.switch_cpus.data 72428.362112                       # average ReadReq miss latency
system.cpu.dcache.ReadReq_avg_miss_latency::total 72427.018806                       # average ReadReq miss latency
system.cpu.dcache.ReadReq_mshr_hits::.switch_cpus.data        39946                       # number of ReadReq MSHR hits
system.cpu.dcache.ReadReq_mshr_hits::total        39946                       # number of ReadReq MSHR hits
system.cpu.dcache.ReadReq_mshr_misses::.switch_cpus.data        13971                       # number of ReadReq MSHR misses
system.cpu.dcache.ReadReq_mshr_misses::total        13971                       # number of ReadReq MSHR misses
system.cpu.dcache.ReadReq_mshr_miss_latency::.switch_cpus.data    968574000                       # number of ReadReq MSHR miss cycles
system.cpu.dcache.ReadReq_mshr_miss_latency::total    968574000                       # number of ReadReq MSHR miss cycles
system.cpu.dcache.ReadReq_mshr_miss_rate::.switch_cpus.data     0.051148                       # mshr miss rate for ReadReq accesses
system.cpu.dcache.ReadReq_mshr_miss_rate::total     0.051147                       # mshr miss rate for ReadReq accesses
system.cpu.dcache.ReadReq_avg_mshr_miss_latency::.switch_cpus.data 69327.464033                       # average ReadReq mshr miss latency
system.cpu.dcache.ReadReq_avg_mshr_miss_latency::total 69327.464033                       # average ReadReq mshr miss latency
system.cpu.dcache.WriteReq_hits::.cpu.data           10                       # number of WriteReq hits
system.cpu.dcache.WriteReq_hits::.switch_cpus.data       292740                       # number of WriteReq hits
system.cpu.dcache.WriteReq_hits::total         292750                       # number of WriteReq hits
system.cpu.dcache.WriteReq_misses::.cpu.data            1                       # number of WriteReq misses
system.cpu.dcache.WriteReq_misses::.switch_cpus.data         3761                       # number of WriteReq misses
system.cpu.dcache.WriteReq_misses::total         3762                       # number of WriteReq misses
system.cpu.dcache.WriteReq_miss_latency::.switch_cpus.data    326900799                       # number of WriteReq miss cycles
system.cpu.dcache.WriteReq_miss_latency::total    326900799                       # number of WriteReq miss cycles
system.cpu.dcache.WriteReq_accesses::.cpu.data           11                       # number of WriteReq accesses(hits+misses)
system.cpu.dcache.WriteReq_accesses::.switch_cpus.data       296501                       # number of WriteReq accesses(hits+misses)
system.cpu.dcache.WriteReq_accesses::total       296512                       # number of WriteReq accesses(hits+misses)
system.cpu.dcache.WriteReq_miss_rate::.cpu.data     0.090909                       # miss rate for WriteReq accesses
system.cpu.dcache.WriteReq_miss_rate::.switch_cpus.data     0.012685                       # miss rate for WriteReq accesses
system.cpu.dcache.WriteReq_miss_rate::total     0.012688                       # miss rate for WriteReq accesses
system.cpu.dcache.WriteReq_avg_miss_latency::.switch_cpus.data 86918.585217                       # average WriteReq miss latency
system.cpu.dcache.WriteReq_avg_miss_latency::total 86895.480861                       # average WriteReq miss latency
system.cpu.dcache.WriteReq_mshr_hits::.switch_cpus.data         2802                       # number of WriteReq MSHR hits
system.cpu.dcache.WriteReq_mshr_hits::total         2802                       # number of WriteReq MSHR hits
system.cpu.dcache.WriteReq_mshr_misses::.switch_cpus.data          959                       # number of WriteReq MSHR misses
system.cpu.dcache.WriteReq_mshr_misses::total          959                       # number of WriteReq MSHR misses
system.cpu.dcache.WriteReq_mshr_miss_latency::.switch_cpus.data     79087599                       # number of WriteReq MSHR miss cycles
system.cpu.dcache.WriteReq_mshr_miss_latency::total     79087599                       # number of WriteReq MSHR miss cycles
system.cpu.dcache.WriteReq_mshr_miss_rate::.switch_cpus.data     0.003234                       # mshr miss rate for WriteReq accesses
system.cpu.dcache.WriteReq_mshr_miss_rate::total     0.003234                       # mshr miss rate for WriteReq accesses
system.cpu.dcache.WriteReq_avg_mshr_miss_latency::.switch_cpus.data 82468.820647                       # average WriteReq mshr miss latency
system.cpu.dcache.WriteReq_avg_mshr_miss_latency::total 82468.820647                       # average WriteReq mshr miss latency
system.cpu.dcache.power_state.pwrStateResidencyTicks::UNDEFINED 5442582529200                       # Cumulative time (in ticks) in various power states
system.cpu.dcache.tags.tagsinuse           252.714833                       # Cycle average of tags in use
system.cpu.dcache.tags.total_refs              349921                       # Total number of references to valid blocks.
system.cpu.dcache.tags.sampled_refs             14676                       # Sample count of references to valid blocks.
system.cpu.dcache.tags.avg_refs             23.843077                       # Average number of references to valid blocks.
system.cpu.dcache.tags.warmup_cycle      5442005183600                       # Cycle when the warmup percentage was hit.
system.cpu.dcache.tags.occ_blocks::.cpu.data     0.100389                       # Average occupied blocks per requestor
system.cpu.dcache.tags.occ_blocks::.switch_cpus.data   252.614444                       # Average occupied blocks per requestor
system.cpu.dcache.tags.occ_percent::.cpu.data     0.000392                       # Average percentage of cache occupancy
system.cpu.dcache.tags.occ_percent::.switch_cpus.data     0.986775                       # Average percentage of cache occupancy
system.cpu.dcache.tags.occ_percent::total     0.987167                       # Average percentage of cache occupancy
system.cpu.dcache.tags.occ_task_id_blocks::1024          256                       # Occupied blocks per task id
system.cpu.dcache.tags.age_task_id_blocks_1024::0          149                       # Occupied blocks per task id
system.cpu.dcache.tags.age_task_id_blocks_1024::1           90                       # Occupied blocks per task id
system.cpu.dcache.tags.age_task_id_blocks_1024::2           17                       # Occupied blocks per task id
system.cpu.dcache.tags.occ_task_id_percent::1024            1                       # Percentage of cache occupancy per task id
system.cpu.dcache.tags.tag_accesses           4572268                       # Number of tag accesses
system.cpu.dcache.tags.data_accesses          4572268                       # Number of data accesses
system.cpu.dcache.tags.power_state.pwrStateResidencyTicks::UNDEFINED 5442582529200                       # Cumulative time (in ticks) in various power states
system.cpu.dtb.instHits                             0                       # ITB inst hits
system.cpu.dtb.instMisses                           0                       # ITB inst misses
system.cpu.dtb.readHits                             0                       # DTB read hits
system.cpu.dtb.readMisses                           0                       # DTB read misses
system.cpu.dtb.writeHits                            0                       # DTB write hits
system.cpu.dtb.writeMisses                          0                       # DTB write misses
system.cpu.dtb.inserts                              0                       # Number of times an entry is inserted into the TLB
system.cpu.dtb.flushTlb                             2                       # Number of times complete TLB was flushed
system.cpu.dtb.flushTlbMva                          0                       # Number of times TLB was flushed by MVA
system.cpu.dtb.flushTlbMvaAsid                      0                       # Number of times TLB was flushed by MVA & ASID
system.cpu.dtb.flushTlbAsid                         0                       # Number of times TLB was flushed by ASID
system.cpu.dtb.flushedEntries                       0                       # Number of entries that have been flushed from TLB
system.cpu.dtb.alignFaults                          0                       # Number of TLB faults due to alignment restrictions
system.cpu.dtb.prefetchFaults                       0                       # Number of TLB faults due to prefetch
system.cpu.dtb.domainFaults                         0                       # Number of TLB faults due to domain restrictions
system.cpu.dtb.permsFaults                          0                       # Number of TLB faults due to permissions restrictions
system.cpu.dtb.readAccesses                         0                       # DTB read accesses
system.cpu.dtb.writeAccesses                        0                       # DTB write accesses
system.cpu.dtb.instAccesses                         0                       # ITB inst accesses
system.cpu.dtb.hits                                 0                       # Total TLB (inst and data) hits
system.cpu.dtb.misses                               0                       # Total TLB (inst and data) misses
system.cpu.dtb.accesses                             0                       # Total TLB (inst and data) accesses
system.cpu.dtb.stage2_mmu.stage2_tlb.instHits            0                       # ITB inst hits
system.cpu.dtb.stage2_mmu.stage2_tlb.instMisses            0                       # ITB inst misses
system.cpu.dtb.stage2_mmu.stage2_tlb.readHits            0                       # DTB read hits
system.cpu.dtb.stage2_mmu.stage2_tlb.readMisses            0                       # DTB read misses
system.cpu.dtb.stage2_mmu.stage2_tlb.writeHits            0                       # DTB write hits
system.cpu.dtb.stage2_mmu.stage2_tlb.writeMisses            0                       # DTB write misses
system.cpu.dtb.stage2_mmu.stage2_tlb.inserts            0                       # Number of times an entry is inserted into the TLB
system.cpu.dtb.stage2_mmu.stage2_tlb.flushTlb            0                       # Number of times complete TLB was flushed
system.cpu.dtb.stage2_mmu.stage2_tlb.flushTlbMva            0                       # Number of times TLB was flushed by MVA
system.cpu.dtb.stage2_mmu.stage2_tlb.flushTlbMvaAsid            0                       # Number of times TLB was flushed by MVA & ASID
system.cpu.dtb.stage2_mmu.stage2_tlb.flushTlbAsid            0                       # Number of times TLB was flushed by ASID
system.cpu.dtb.stage2_mmu.stage2_tlb.flushedEntries            0                       # Number of entries that have been flushed from TLB
system.cpu.dtb.stage2_mmu.stage2_tlb.alignFaults            0                       # Number of TLB faults due to alignment restrictions
system.cpu.dtb.stage2_mmu.stage2_tlb.prefetchFaults            0                       # Number of TLB faults due to prefetch
system.cpu.dtb.stage2_mmu.stage2_tlb.domainFaults            0                       # Number of TLB faults due to domain restrictions
system.cpu.dtb.stage2_mmu.stage2_tlb.permsFaults            0                       # Number of TLB faults due to permissions restrictions
system.cpu.dtb.stage2_mmu.stage2_tlb.readAccesses            0                       # DTB read accesses
system.cpu.dtb.stage2_mmu.stage2_tlb.writeAccesses            0                       # DTB write accesses
system.cpu.dtb.stage2_mmu.stage2_tlb.instAccesses            0                       # ITB inst accesses
system.cpu.dtb.stage2_mmu.stage2_tlb.hits            0                       # Total TLB (inst and data) hits
system.cpu.dtb.stage2_mmu.stage2_tlb.misses            0                       # Total TLB (inst and data) misses
system.cpu.dtb.stage2_mmu.stage2_tlb.accesses            0                       # Total TLB (inst and data) accesses
system.cpu.dtb.stage2_mmu.stage2_tlb.walker.walks            0                       # Table walker walks requested
system.cpu.dtb.stage2_mmu.stage2_tlb.walker.requestOrigin_Requested::Data            0                       # Table walker requests started/completed, data/inst
system.cpu.dtb.stage2_mmu.stage2_tlb.walker.requestOrigin_Requested::Inst            0                       # Table walker requests started/completed, data/inst
system.cpu.dtb.stage2_mmu.stage2_tlb.walker.requestOrigin_Requested::total            0                       # Table walker requests started/completed, data/inst
system.cpu.dtb.stage2_mmu.stage2_tlb.walker.requestOrigin_Completed::Data            0                       # Table walker requests started/completed, data/inst
system.cpu.dtb.stage2_mmu.stage2_tlb.walker.requestOrigin_Completed::Inst            0                       # Table walker requests started/completed, data/inst
system.cpu.dtb.stage2_mmu.stage2_tlb.walker.requestOrigin_Completed::total            0                       # Table walker requests started/completed, data/inst
system.cpu.dtb.stage2_mmu.stage2_tlb.walker.requestOrigin::total            0                       # Table walker requests started/completed, data/inst
system.cpu.dtb.stage2_mmu.stage2_tlb.walker.power_state.pwrStateResidencyTicks::UNDEFINED 5442582529200                       # Cumulative time (in ticks) in various power states
system.cpu.dtb.walker.walks                         0                       # Table walker walks requested
system.cpu.dtb.walker.requestOrigin_Requested::Data            0                       # Table walker requests started/completed, data/inst
system.cpu.dtb.walker.requestOrigin_Requested::Inst            0                       # Table walker requests started/completed, data/inst
system.cpu.dtb.walker.requestOrigin_Requested::total            0                       # Table walker requests started/completed, data/inst
system.cpu.dtb.walker.requestOrigin_Completed::Data            0                       # Table walker requests started/completed, data/inst
system.cpu.dtb.walker.requestOrigin_Completed::Inst            0                       # Table walker requests started/completed, data/inst
system.cpu.dtb.walker.requestOrigin_Completed::total            0                       # Table walker requests started/completed, data/inst
system.cpu.dtb.walker.requestOrigin::total            0                       # Table walker requests started/completed, data/inst
system.cpu.dtb.walker.power_state.pwrStateResidencyTicks::UNDEFINED 5442582529200                       # Cumulative time (in ticks) in various power states
system.cpu.dtb_walker_cache.blocked_cycles::no_mshrs            0                       # number of cycles access was blocked
system.cpu.dtb_walker_cache.blocked_cycles::no_targets            0                       # number of cycles access was blocked
system.cpu.dtb_walker_cache.blocked::no_mshrs            0                       # number of cycles access was blocked
system.cpu.dtb_walker_cache.blocked::no_targets            0                       # number of cycles access was blocked
system.cpu.dtb_walker_cache.avg_blocked_cycles::no_mshrs          nan                       # average number of cycles each access was blocked
system.cpu.dtb_walker_cache.avg_blocked_cycles::no_targets          nan                       # average number of cycles each access was blocked
system.cpu.dtb_walker_cache.replacements            0                       # number of replacements
system.cpu.dtb_walker_cache.power_state.pwrStateResidencyTicks::UNDEFINED 5442582529200                       # Cumulative time (in ticks) in various power states
system.cpu.dtb_walker_cache.tags.tagsinuse            0                       # Cycle average of tags in use
system.cpu.dtb_walker_cache.tags.total_refs            0                       # Total number of references to valid blocks.
system.cpu.dtb_walker_cache.tags.sampled_refs            0                       # Sample count of references to valid blocks.
system.cpu.dtb_walker_cache.tags.avg_refs          nan                       # Average number of references to valid blocks.
system.cpu.dtb_walker_cache.tags.warmup_cycle            0                       # Cycle when the warmup percentage was hit.
system.cpu.dtb_walker_cache.tags.tag_accesses            0                       # Number of tag accesses
system.cpu.dtb_walker_cache.tags.data_accesses            0                       # Number of data accesses
system.cpu.dtb_walker_cache.tags.power_state.pwrStateResidencyTicks::UNDEFINED 5442582529200                       # Cumulative time (in ticks) in various power states
system.cpu.icache.demand_hits::.cpu.inst           21                       # number of demand (read+write) hits
system.cpu.icache.demand_hits::.switch_cpus.inst       193397                       # number of demand (read+write) hits
system.cpu.icache.demand_hits::total           193418                       # number of demand (read+write) hits
system.cpu.icache.overall_hits::.cpu.inst           21                       # number of overall hits
system.cpu.icache.overall_hits::.switch_cpus.inst       193397                       # number of overall hits
system.cpu.icache.overall_hits::total          193418                       # number of overall hits
system.cpu.icache.demand_misses::.cpu.inst            1                       # number of demand (read+write) misses
system.cpu.icache.demand_misses::.switch_cpus.inst           14                       # number of demand (read+write) misses
system.cpu.icache.demand_misses::total             15                       # number of demand (read+write) misses
system.cpu.icache.overall_misses::.cpu.inst            1                       # number of overall misses
system.cpu.icache.overall_misses::.switch_cpus.inst           14                       # number of overall misses
system.cpu.icache.overall_misses::total            15                       # number of overall misses
system.cpu.icache.demand_miss_latency::.switch_cpus.inst      1155999                       # number of demand (read+write) miss cycles
system.cpu.icache.demand_miss_latency::total      1155999                       # number of demand (read+write) miss cycles
system.cpu.icache.overall_miss_latency::.switch_cpus.inst      1155999                       # number of overall miss cycles
system.cpu.icache.overall_miss_latency::total      1155999                       # number of overall miss cycles
system.cpu.icache.demand_accesses::.cpu.inst           22                       # number of demand (read+write) accesses
system.cpu.icache.demand_accesses::.switch_cpus.inst       193411                       # number of demand (read+write) accesses
system.cpu.icache.demand_accesses::total       193433                       # number of demand (read+write) accesses
system.cpu.icache.overall_accesses::.cpu.inst           22                       # number of overall (read+write) accesses
system.cpu.icache.overall_accesses::.switch_cpus.inst       193411                       # number of overall (read+write) accesses
system.cpu.icache.overall_accesses::total       193433                       # number of overall (read+write) accesses
system.cpu.icache.demand_miss_rate::.cpu.inst     0.045455                       # miss rate for demand accesses
system.cpu.icache.demand_miss_rate::.switch_cpus.inst     0.000072                       # miss rate for demand accesses
system.cpu.icache.demand_miss_rate::total     0.000078                       # miss rate for demand accesses
system.cpu.icache.overall_miss_rate::.cpu.inst     0.045455                       # miss rate for overall accesses
system.cpu.icache.overall_miss_rate::.switch_cpus.inst     0.000072                       # miss rate for overall accesses
system.cpu.icache.overall_miss_rate::total     0.000078                       # miss rate for overall accesses
system.cpu.icache.demand_avg_miss_latency::.switch_cpus.inst 82571.357143                       # average overall miss latency
system.cpu.icache.demand_avg_miss_latency::total 77066.600000                       # average overall miss latency
system.cpu.icache.overall_avg_miss_latency::.switch_cpus.inst 82571.357143                       # average overall miss latency
system.cpu.icache.overall_avg_miss_latency::total 77066.600000                       # average overall miss latency
system.cpu.icache.blocked_cycles::no_mshrs          352                       # number of cycles access was blocked
system.cpu.icache.blocked_cycles::no_targets            0                       # number of cycles access was blocked
system.cpu.icache.blocked::no_mshrs                 3                       # number of cycles access was blocked
system.cpu.icache.blocked::no_targets               0                       # number of cycles access was blocked
system.cpu.icache.avg_blocked_cycles::no_mshrs   117.333333                       # average number of cycles each access was blocked
system.cpu.icache.avg_blocked_cycles::no_targets          nan                       # average number of cycles each access was blocked
system.cpu.icache.demand_mshr_hits::.switch_cpus.inst            3                       # number of demand (read+write) MSHR hits
system.cpu.icache.demand_mshr_hits::total            3                       # number of demand (read+write) MSHR hits
system.cpu.icache.overall_mshr_hits::.switch_cpus.inst            3                       # number of overall MSHR hits
system.cpu.icache.overall_mshr_hits::total            3                       # number of overall MSHR hits
system.cpu.icache.demand_mshr_misses::.switch_cpus.inst           11                       # number of demand (read+write) MSHR misses
system.cpu.icache.demand_mshr_misses::total           11                       # number of demand (read+write) MSHR misses
system.cpu.icache.overall_mshr_misses::.switch_cpus.inst           11                       # number of overall MSHR misses
system.cpu.icache.overall_mshr_misses::total           11                       # number of overall MSHR misses
system.cpu.icache.demand_mshr_miss_latency::.switch_cpus.inst       832399                       # number of demand (read+write) MSHR miss cycles
system.cpu.icache.demand_mshr_miss_latency::total       832399                       # number of demand (read+write) MSHR miss cycles
system.cpu.icache.overall_mshr_miss_latency::.switch_cpus.inst       832399                       # number of overall MSHR miss cycles
system.cpu.icache.overall_mshr_miss_latency::total       832399                       # number of overall MSHR miss cycles
system.cpu.icache.demand_mshr_miss_rate::.switch_cpus.inst     0.000057                       # mshr miss rate for demand accesses
system.cpu.icache.demand_mshr_miss_rate::total     0.000057                       # mshr miss rate for demand accesses
system.cpu.icache.overall_mshr_miss_rate::.switch_cpus.inst     0.000057                       # mshr miss rate for overall accesses
system.cpu.icache.overall_mshr_miss_rate::total     0.000057                       # mshr miss rate for overall accesses
system.cpu.icache.demand_avg_mshr_miss_latency::.switch_cpus.inst 75672.636364                       # average overall mshr miss latency
system.cpu.icache.demand_avg_mshr_miss_latency::total 75672.636364                       # average overall mshr miss latency
system.cpu.icache.overall_avg_mshr_miss_latency::.switch_cpus.inst 75672.636364                       # average overall mshr miss latency
system.cpu.icache.overall_avg_mshr_miss_latency::total 75672.636364                       # average overall mshr miss latency
system.cpu.icache.replacements                      0                       # number of replacements
system.cpu.icache.ReadReq_hits::.cpu.inst           21                       # number of ReadReq hits
system.cpu.icache.ReadReq_hits::.switch_cpus.inst       193397                       # number of ReadReq hits
system.cpu.icache.ReadReq_hits::total          193418                       # number of ReadReq hits
system.cpu.icache.ReadReq_misses::.cpu.inst            1                       # number of ReadReq misses
system.cpu.icache.ReadReq_misses::.switch_cpus.inst           14                       # number of ReadReq misses
system.cpu.icache.ReadReq_misses::total            15                       # number of ReadReq misses
system.cpu.icache.ReadReq_miss_latency::.switch_cpus.inst      1155999                       # number of ReadReq miss cycles
system.cpu.icache.ReadReq_miss_latency::total      1155999                       # number of ReadReq miss cycles
system.cpu.icache.ReadReq_accesses::.cpu.inst           22                       # number of ReadReq accesses(hits+misses)
system.cpu.icache.ReadReq_accesses::.switch_cpus.inst       193411                       # number of ReadReq accesses(hits+misses)
system.cpu.icache.ReadReq_accesses::total       193433                       # number of ReadReq accesses(hits+misses)
system.cpu.icache.ReadReq_miss_rate::.cpu.inst     0.045455                       # miss rate for ReadReq accesses
system.cpu.icache.ReadReq_miss_rate::.switch_cpus.inst     0.000072                       # miss rate for ReadReq accesses
system.cpu.icache.ReadReq_miss_rate::total     0.000078                       # miss rate for ReadReq accesses
system.cpu.icache.ReadReq_avg_miss_latency::.switch_cpus.inst 82571.357143                       # average ReadReq miss latency
system.cpu.icache.ReadReq_avg_miss_latency::total 77066.600000                       # average ReadReq miss latency
system.cpu.icache.ReadReq_mshr_hits::.switch_cpus.inst            3                       # number of ReadReq MSHR hits
system.cpu.icache.ReadReq_mshr_hits::total            3                       # number of ReadReq MSHR hits
system.cpu.icache.ReadReq_mshr_misses::.switch_cpus.inst           11                       # number of ReadReq MSHR misses
system.cpu.icache.ReadReq_mshr_misses::total           11                       # number of ReadReq MSHR misses
system.cpu.icache.ReadReq_mshr_miss_latency::.switch_cpus.inst       832399                       # number of ReadReq MSHR miss cycles
system.cpu.icache.ReadReq_mshr_miss_latency::total       832399                       # number of ReadReq MSHR miss cycles
system.cpu.icache.ReadReq_mshr_miss_rate::.switch_cpus.inst     0.000057                       # mshr miss rate for ReadReq accesses
system.cpu.icache.ReadReq_mshr_miss_rate::total     0.000057                       # mshr miss rate for ReadReq accesses
system.cpu.icache.ReadReq_avg_mshr_miss_latency::.switch_cpus.inst 75672.636364                       # average ReadReq mshr miss latency
system.cpu.icache.ReadReq_avg_mshr_miss_latency::total 75672.636364                       # average ReadReq mshr miss latency
system.cpu.icache.power_state.pwrStateResidencyTicks::UNDEFINED 5442582529200                       # Cumulative time (in ticks) in various power states
system.cpu.icache.tags.tagsinuse            11.987188                       # Cycle average of tags in use
system.cpu.icache.tags.total_refs                   0                       # Total number of references to valid blocks.
system.cpu.icache.tags.sampled_refs                 0                       # Sample count of references to valid blocks.
system.cpu.icache.tags.avg_refs                   nan                       # Average number of references to valid blocks.
system.cpu.icache.tags.warmup_cycle      5442005181600                       # Cycle when the warmup percentage was hit.
system.cpu.icache.tags.occ_blocks::.cpu.inst     0.999999                       # Average occupied blocks per requestor
system.cpu.icache.tags.occ_blocks::.switch_cpus.inst    10.987189                       # Average occupied blocks per requestor
system.cpu.icache.tags.occ_percent::.cpu.inst     0.001953                       # Average percentage of cache occupancy
system.cpu.icache.tags.occ_percent::.switch_cpus.inst     0.021459                       # Average percentage of cache occupancy
system.cpu.icache.tags.occ_percent::total     0.023412                       # Average percentage of cache occupancy
system.cpu.icache.tags.occ_task_id_blocks::1024           12                       # Occupied blocks per task id
system.cpu.icache.tags.age_task_id_blocks_1024::2           12                       # Occupied blocks per task id
system.cpu.icache.tags.occ_task_id_percent::1024     0.023438                       # Percentage of cache occupancy per task id
system.cpu.icache.tags.tag_accesses           1547476                       # Number of tag accesses
system.cpu.icache.tags.data_accesses          1547476                       # Number of data accesses
system.cpu.icache.tags.power_state.pwrStateResidencyTicks::UNDEFINED 5442582529200                       # Cumulative time (in ticks) in various power states
system.cpu.itb.instHits                             0                       # ITB inst hits
system.cpu.itb.instMisses                           0                       # ITB inst misses
system.cpu.itb.readHits                             0                       # DTB read hits
system.cpu.itb.readMisses                           0                       # DTB read misses
system.cpu.itb.writeHits                            0                       # DTB write hits
system.cpu.itb.writeMisses                          0                       # DTB write misses
system.cpu.itb.inserts                              0                       # Number of times an entry is inserted into the TLB
system.cpu.itb.flushTlb                             2                       # Number of times complete TLB was flushed
system.cpu.itb.flushTlbMva                          0                       # Number of times TLB was flushed by MVA
system.cpu.itb.flushTlbMvaAsid                      0                       # Number of times TLB was flushed by MVA & ASID
system.cpu.itb.flushTlbAsid                         0                       # Number of times TLB was flushed by ASID
system.cpu.itb.flushedEntries                       0                       # Number of entries that have been flushed from TLB
system.cpu.itb.alignFaults                          0                       # Number of TLB faults due to alignment restrictions
system.cpu.itb.prefetchFaults                       0                       # Number of TLB faults due to prefetch
system.cpu.itb.domainFaults                         0                       # Number of TLB faults due to domain restrictions
system.cpu.itb.permsFaults                          0                       # Number of TLB faults due to permissions restrictions
system.cpu.itb.readAccesses                         0                       # DTB read accesses
system.cpu.itb.writeAccesses                        0                       # DTB write accesses
system.cpu.itb.instAccesses                         0                       # ITB inst accesses
system.cpu.itb.hits                                 0                       # Total TLB (inst and data) hits
system.cpu.itb.misses                               0                       # Total TLB (inst and data) misses
system.cpu.itb.accesses                             0                       # Total TLB (inst and data) accesses
system.cpu.itb.stage2_mmu.stage2_tlb.instHits            0                       # ITB inst hits
system.cpu.itb.stage2_mmu.stage2_tlb.instMisses            0                       # ITB inst misses
system.cpu.itb.stage2_mmu.stage2_tlb.readHits            0                       # DTB read hits
system.cpu.itb.stage2_mmu.stage2_tlb.readMisses            0                       # DTB read misses
system.cpu.itb.stage2_mmu.stage2_tlb.writeHits            0                       # DTB write hits
system.cpu.itb.stage2_mmu.stage2_tlb.writeMisses            0                       # DTB write misses
system.cpu.itb.stage2_mmu.stage2_tlb.inserts            0                       # Number of times an entry is inserted into the TLB
system.cpu.itb.stage2_mmu.stage2_tlb.flushTlb            0                       # Number of times complete TLB was flushed
system.cpu.itb.stage2_mmu.stage2_tlb.flushTlbMva            0                       # Number of times TLB was flushed by MVA
system.cpu.itb.stage2_mmu.stage2_tlb.flushTlbMvaAsid            0                       # Number of times TLB was flushed by MVA & ASID
system.cpu.itb.stage2_mmu.stage2_tlb.flushTlbAsid            0                       # Number of times TLB was flushed by ASID
system.cpu.itb.stage2_mmu.stage2_tlb.flushedEntries            0                       # Number of entries that have been flushed from TLB
system.cpu.itb.stage2_mmu.stage2_tlb.alignFaults            0                       # Number of TLB faults due to alignment restrictions
system.cpu.itb.stage2_mmu.stage2_tlb.prefetchFaults            0                       # Number of TLB faults due to prefetch
system.cpu.itb.stage2_mmu.stage2_tlb.domainFaults            0                       # Number of TLB faults due to domain restrictions
system.cpu.itb.stage2_mmu.stage2_tlb.permsFaults            0                       # Number of TLB faults due to permissions restrictions
system.cpu.itb.stage2_mmu.stage2_tlb.readAccesses            0                       # DTB read accesses
system.cpu.itb.stage2_mmu.stage2_tlb.writeAccesses            0                       # DTB write accesses
system.cpu.itb.stage2_mmu.stage2_tlb.instAccesses            0                       # ITB inst accesses
system.cpu.itb.stage2_mmu.stage2_tlb.hits            0                       # Total TLB (inst and data) hits
system.cpu.itb.stage2_mmu.stage2_tlb.misses            0                       # Total TLB (inst and data) misses
system.cpu.itb.stage2_mmu.stage2_tlb.accesses            0                       # Total TLB (inst and data) accesses
system.cpu.itb.stage2_mmu.stage2_tlb.walker.walks            0                       # Table walker walks requested
system.cpu.itb.stage2_mmu.stage2_tlb.walker.requestOrigin_Requested::Data            0                       # Table walker requests started/completed, data/inst
system.cpu.itb.stage2_mmu.stage2_tlb.walker.requestOrigin_Requested::Inst            0                       # Table walker requests started/completed, data/inst
system.cpu.itb.stage2_mmu.stage2_tlb.walker.requestOrigin_Requested::total            0                       # Table walker requests started/completed, data/inst
system.cpu.itb.stage2_mmu.stage2_tlb.walker.requestOrigin_Completed::Data            0                       # Table walker requests started/completed, data/inst
system.cpu.itb.stage2_mmu.stage2_tlb.walker.requestOrigin_Completed::Inst            0                       # Table walker requests started/completed, data/inst
system.cpu.itb.stage2_mmu.stage2_tlb.walker.requestOrigin_Completed::total            0                       # Table walker requests started/completed, data/inst
system.cpu.itb.stage2_mmu.stage2_tlb.walker.requestOrigin::total            0                       # Table walker requests started/completed, data/inst
system.cpu.itb.stage2_mmu.stage2_tlb.walker.power_state.pwrStateResidencyTicks::UNDEFINED 5442582529200                       # Cumulative time (in ticks) in various power states
system.cpu.itb.walker.walks                         0                       # Table walker walks requested
system.cpu.itb.walker.requestOrigin_Requested::Data            0                       # Table walker requests started/completed, data/inst
system.cpu.itb.walker.requestOrigin_Requested::Inst            0                       # Table walker requests started/completed, data/inst
system.cpu.itb.walker.requestOrigin_Requested::total            0                       # Table walker requests started/completed, data/inst
system.cpu.itb.walker.requestOrigin_Completed::Data            0                       # Table walker requests started/completed, data/inst
system.cpu.itb.walker.requestOrigin_Completed::Inst            0                       # Table walker requests started/completed, data/inst
[...]
system.switch_cpus.fetch.insts               21389334                       # Number of instructions fetch has processed
system.switch_cpus.fetch.branches             2657986                       # Number of branches that fetch encountered
system.switch_cpus.fetch.predictedBranches       916716                       # Number of branches that fetch has predicted taken
system.switch_cpus.fetch.cycles              17833447                       # Number of cycles fetch has run and was not squashing or blocked
system.switch_cpus.fetch.squashCycles          177668                       # Number of cycles fetch has spent squashing
system.switch_cpus.fetch.miscStallCycles          117                       # Number of cycles fetch has spent waiting on interrupts,or bad addresses, or out of MSHRs
system.switch_cpus.fetch.icacheWaitRetryStallCycles           83                       # Number of stall cycles due to full MSHR
system.switch_cpus.fetch.cacheLines           1890193                       # Number of cache lines fetched
system.switch_cpus.fetch.icacheSquashes            28                       # Number of outstanding Icache misses that were squashed
system.switch_cpus.fetch.nisnDist::samples     17996329                       # Number of instructions fetched each cycle (Total)
system.switch_cpus.fetch.nisnDist::mean      1.300553                       # Number of instructions fetched each cycle (Total)
system.switch_cpus.fetch.nisnDist::stdev     2.663167                       # Number of instructions fetched each cycle (Total)
system.switch_cpus.fetch.nisnDist::underflows            0      0.00%      0.00% # Number of instructions fetched each cycle (Total)
system.switch_cpus.fetch.nisnDist::0         14038608     78.01%     78.01% # Number of instructions fetched each cycle (Total)
system.switch_cpus.fetch.nisnDist::1            85580      0.48%     78.48% # Number of instructions fetched each cycle (Total)
system.switch_cpus.fetch.nisnDist::2           309837      1.72%     80.21% # Number of instructions fetched each cycle (Total)
system.switch_cpus.fetch.nisnDist::3           220059      1.22%     81.43% # Number of instructions fetched each cycle (Total)
system.switch_cpus.fetch.nisnDist::4           802298      4.46%     85.89% # Number of instructions fetched each cycle (Total)
system.switch_cpus.fetch.nisnDist::5            83125      0.46%     86.35% # Number of instructions fetched each cycle (Total)
system.switch_cpus.fetch.nisnDist::6           607741      3.38%     89.73% # Number of instructions fetched each cycle (Total)
system.switch_cpus.fetch.nisnDist::7            24155      0.13%     89.86% # Number of instructions fetched each cycle (Total)
system.switch_cpus.fetch.nisnDist::8          1824926     10.14%    100.00% # Number of instructions fetched each cycle (Total)
system.switch_cpus.fetch.nisnDist::overflows            0      0.00%    100.00% # Number of instructions fetched each cycle (Total)
system.switch_cpus.fetch.nisnDist::min_value            0                       # Number of instructions fetched each cycle (Total)
system.switch_cpus.fetch.nisnDist::max_value            8                       # Number of instructions fetched each cycle (Total)
system.switch_cpus.fetch.nisnDist::total     17996329                       # Number of instructions fetched each cycle (Total)
system.switch_cpus.fetch.branchRate          0.147671                       # Number of branch fetches per cycle
system.switch_cpus.fetch.rate                1.188340                       # Number of inst fetches per cycle
system.switch_cpus.itb.instHits                     0                       # ITB inst hits
system.switch_cpus.itb.instMisses                   0                       # ITB inst misses
system.switch_cpus.itb.readHits                     0                       # DTB read hits
system.switch_cpus.itb.readMisses                   0                       # DTB read misses
system.switch_cpus.itb.writeHits                    0                       # DTB write hits
system.switch_cpus.itb.writeMisses                  0                       # DTB write misses
system.switch_cpus.itb.inserts                      0                       # Number of times an entry is inserted into the TLB
system.switch_cpus.itb.flushTlb                     0                       # Number of times complete TLB was flushed
system.switch_cpus.itb.flushTlbMva                  0                       # Number of times TLB was flushed by MVA
system.switch_cpus.itb.flushTlbMvaAsid              0                       # Number of times TLB was flushed by MVA & ASID
system.switch_cpus.itb.flushTlbAsid                 0                       # Number of times TLB was flushed by ASID
system.switch_cpus.itb.flushedEntries               0                       # Number of entries that have been flushed from TLB
system.switch_cpus.itb.alignFaults                  0                       # Number of TLB faults due to alignment restrictions
system.switch_cpus.itb.prefetchFaults               0                       # Number of TLB faults due to prefetch
system.switch_cpus.itb.domainFaults                 0                       # Number of TLB faults due to domain restrictions
system.switch_cpus.itb.permsFaults                  0                       # Number of TLB faults due to permissions restrictions
system.switch_cpus.itb.readAccesses                 0                       # DTB read accesses
system.switch_cpus.itb.writeAccesses                0                       # DTB write accesses
system.switch_cpus.itb.instAccesses                 0                       # ITB inst accesses
system.switch_cpus.itb.hits                         0                       # Total TLB (inst and data) hits
system.switch_cpus.itb.misses                       0                       # Total TLB (inst and data) misses
system.switch_cpus.itb.accesses                     0                       # Total TLB (inst and data) accesses
system.switch_cpus.itb.stage2_mmu.stage2_tlb.instHits            0                       # ITB inst hits
system.switch_cpus.itb.stage2_mmu.stage2_tlb.instMisses            0                       # ITB inst misses
system.switch_cpus.itb.stage2_mmu.stage2_tlb.readHits            0                       # DTB read hits
system.switch_cpus.itb.stage2_mmu.stage2_tlb.readMisses            0                       # DTB read misses
system.switch_cpus.itb.stage2_mmu.stage2_tlb.writeHits            0                       # DTB write hits
system.switch_cpus.itb.stage2_mmu.stage2_tlb.writeMisses            0                       # DTB write misses
system.switch_cpus.itb.stage2_mmu.stage2_tlb.inserts            0                       # Number of times an entry is inserted into the TLB
system.switch_cpus.itb.stage2_mmu.stage2_tlb.flushTlb            0                       # Number of times complete TLB was flushed
system.switch_cpus.itb.stage2_mmu.stage2_tlb.flushTlbMva            0                       # Number of times TLB was flushed by MVA
system.switch_cpus.itb.stage2_mmu.stage2_tlb.flushTlbMvaAsid            0                       # Number of times TLB was flushed by MVA & ASID
system.switch_cpus.itb.stage2_mmu.stage2_tlb.flushTlbAsid            0                       # Number of times TLB was flushed by ASID
system.switch_cpus.itb.stage2_mmu.stage2_tlb.flushedEntries            0                       # Number of entries that have been flushed from TLB
system.switch_cpus.itb.stage2_mmu.stage2_tlb.alignFaults            0                       # Number of TLB faults due to alignment restrictions
system.switch_cpus.itb.stage2_mmu.stage2_tlb.prefetchFaults            0                       # Number of TLB faults due to prefetch
system.switch_cpus.itb.stage2_mmu.stage2_tlb.domainFaults            0                       # Number of TLB faults due to domain restrictions
system.switch_cpus.itb.stage2_mmu.stage2_tlb.permsFaults            0                       # Number of TLB faults due to permissions restrictions
system.switch_cpus.itb.stage2_mmu.stage2_tlb.readAccesses            0                       # DTB read accesses
system.switch_cpus.itb.stage2_mmu.stage2_tlb.writeAccesses            0                       # DTB write accesses
system.switch_cpus.itb.stage2_mmu.stage2_tlb.instAccesses            0                       # ITB inst accesses
system.switch_cpus.itb.stage2_mmu.stage2_tlb.hits            0                       # Total TLB (inst and data) hits
system.switch_cpus.itb.stage2_mmu.stage2_tlb.misses            0                       # Total TLB (inst and data) misses
system.switch_cpus.itb.stage2_mmu.stage2_tlb.accesses            0                       # Total TLB (inst and data) accesses
system.switch_cpus.itb.stage2_mmu.stage2_tlb.walker.walks            0                       # Table walker walks requested
system.switch_cpus.itb.stage2_mmu.stage2_tlb.walker.requestOrigin_Requested::Data            0                       # Table walker requests started/completed, data/inst
system.switch_cpus.itb.stage2_mmu.stage2_tlb.walker.requestOrigin_Requested::Inst            0                       # Table walker requests started/completed, data/inst
system.switch_cpus.itb.stage2_mmu.stage2_tlb.walker.requestOrigin_Requested::total            0                       # Table walker requests started/completed, data/inst
system.switch_cpus.itb.stage2_mmu.stage2_tlb.walker.requestOrigin_Completed::Data            0                       # Table walker requests started/completed, data/inst
system.switch_cpus.itb.stage2_mmu.stage2_tlb.walker.requestOrigin_Completed::Inst            0                       # Table walker requests started/completed, data/inst
system.switch_cpus.itb.stage2_mmu.stage2_tlb.walker.requestOrigin_Completed::total            0                       # Table walker requests started/completed, data/inst
system.switch_cpus.itb.stage2_mmu.stage2_tlb.walker.requestOrigin::total            0                       # Table walker requests started/completed, data/inst
system.switch_cpus.itb.stage2_mmu.stage2_tlb.walker.power_state.pwrStateResidencyTicks::UNDEFINED   7199732400                       # Cumulative time (in ticks) in various power states
system.switch_cpus.itb.walker.walks                 0                       # Table walker walks requested
system.switch_cpus.itb.walker.requestOrigin_Requested::Data            0                       # Table walker requests started/completed, data/inst
system.switch_cpus.itb.walker.requestOrigin_Requested::Inst            0                       # Table walker requests started/completed, data/inst
system.switch_cpus.itb.walker.requestOrigin_Requested::total            0                       # Table walker requests started/completed, data/inst
system.switch_cpus.itb.walker.requestOrigin_Completed::Data            0                       # Table walker requests started/completed, data/inst
system.switch_cpus.itb.walker.requestOrigin_Completed::Inst            0                       # Table walker requests started/completed, data/inst
system.switch_cpus.itb.walker.requestOrigin_Completed::total            0                       # Table walker requests started/completed, data/inst
system.switch_cpus.itb.walker.requestOrigin::total            0                       # Table walker requests started/completed, data/inst
system.switch_cpus.itb.walker.power_state.pwrStateResidencyTicks::UNDEFINED   7199732400                       # Cumulative time (in ticks) in various power states
system.switch_cpus.lsq0.forwLoads               21127                       # Number of loads that had data forwarded from stores
system.switch_cpus.lsq0.squashedLoads         1584306                       # Number of loads squashed
system.switch_cpus.lsq0.ignoredResponses           15                       # Number of memory responses ignored because the instruction is squashed
system.switch_cpus.lsq0.memOrderViolation           40                       # Number of memory ordering violations
system.switch_cpus.lsq0.squashedStores        1737008                       # Number of stores squashed
system.switch_cpus.lsq0.rescheduledLoads           73                       # Number of loads that were rescheduled
system.switch_cpus.lsq0.blockedByCache         194797                       # Number of times an access to memory failed due to the cache being blocked
system.switch_cpus.power_state.pwrStateResidencyTicks::OFF   7199732400                       # Cumulative time (in ticks) in various power states
system.switch_cpus.rename.squashCycles          88820                       # Number of cycles rename is squashing
system.switch_cpus.rename.idleCycles          1145114                       # Number of cycles rename is idle
system.switch_cpus.rename.blockCycles        12289589                       # Number of cycles rename is blocking
system.switch_cpus.rename.serializeStallCycles        21797                       # count of cycles rename stalledfor serializing inst
system.switch_cpus.rename.runCycles           2272776                       # Number of cycles rename is running
system.switch_cpus.rename.unblockCycles       2178233                       # Number of cycles rename is unblocking
system.switch_cpus.rename.renamedInsts       19084225                       # Number of instructions processed by rename
system.switch_cpus.rename.squashedInsts        301983                       # Number of squashed instructions processed by rename
system.switch_cpus.rename.ROBFullEvents         16783                       # Number of times rename has blocked due to ROB full
system.switch_cpus.rename.IQFullEvents         421734                       # Number of times rename has blocked due to IQ full
system.switch_cpus.rename.SQFullEvents        1046143                       # Number of times rename has blocked due to SQ full
system.switch_cpus.rename.fullRegistersEvents       637671                       # Number of times there has been no free registers
system.switch_cpus.rename.renamedOperands     17660190                       # Number of destination operands rename has renamed
system.switch_cpus.rename.lookups            32346641                       # Number of register rename lookups that rename has made
system.switch_cpus.rename.intLookups         27497048                       # Number of integer rename lookups
system.switch_cpus.rename.committedMaps      10151872                       # Number of HB maps that are committed
system.switch_cpus.rename.undoneMaps          7508287                       # Number of HB maps that are undone due to squashing
system.switch_cpus.rename.serializing              68                       # count of serializing insts renamed
system.switch_cpus.rename.tempSerializing            0                       # count of temporary serializing insts renamed
system.switch_cpus.rename.skidInsts           3585824                       # count of insts added to the skid buffer
system.switch_cpus.rob.reads                 32413071                       # The number of ROB reads
system.switch_cpus.rob.writes                39044262                       # The number of ROB writes
system.switch_cpus.thread_0.numInsts         10000000                       # Number of Instructions committed
system.switch_cpus.thread_0.numOps           10916689                       # Number of Ops committed
system.switch_cpus.thread_0.numMemRefs              0                       # Number of Memory References
system.tol2bus.trans_dist::ReadResp            381656                       # Transaction distribution
system.tol2bus.trans_dist::WritebackDirty       101490                       # Transaction distribution
system.tol2bus.trans_dist::WritebackClean       335799                       # Transaction distribution
system.tol2bus.trans_dist::CleanEvict          273816                       # Transaction distribution
system.tol2bus.trans_dist::HardPFReq           236315                       # Transaction distribution
system.tol2bus.trans_dist::ReadExReq            10566                       # Transaction distribution
system.tol2bus.trans_dist::ReadExResp           10566                       # Transaction distribution
system.tol2bus.trans_dist::ReadCleanReq            34                       # Transaction distribution
system.tol2bus.trans_dist::ReadSharedReq       381628                       # Transaction distribution
system.tol2bus.pkt_count_system.cpu.icache.mem_side_port::system.l2.cpu_side_port           68                       # Packet count per connected requestor and responder (bytes)
system.tol2bus.pkt_count_system.cpu.dcache.mem_side_port::system.l2.cpu_side_port      1176570                       # Packet count per connected requestor and responder (bytes)
system.tol2bus.pkt_count::total               1176638                       # Packet count per connected requestor and responder (bytes)
system.tol2bus.pkt_size_system.cpu.icache.mem_side_port::system.l2.cpu_side_port         4352                       # Cumulative packet size per connected requestor and responder (bytes)
system.tol2bus.pkt_size_system.cpu.dcache.mem_side_port::system.l2.cpu_side_port    100400128                       # Cumulative packet size per connected requestor and responder (bytes)
system.tol2bus.pkt_size::total              100404480                       # Cumulative packet size per connected requestor and responder (bytes)
system.tol2bus.snoops                          555232                       # Total snoops (count)
system.tol2bus.snoopTraffic                   5772928                       # Total snoop traffic (bytes)
system.tol2bus.snoop_fanout::samples           947461                       # Request fanout histogram
system.tol2bus.snoop_fanout::mean            0.000905                       # Request fanout histogram
system.tol2bus.snoop_fanout::stdev           0.030062                       # Request fanout histogram
system.tol2bus.snoop_fanout::underflows             0      0.00%      0.00% # Request fanout histogram
system.tol2bus.snoop_fanout::0                 946604     99.91%     99.91% # Request fanout histogram
system.tol2bus.snoop_fanout::1                    857      0.09%    100.00% # Request fanout histogram
system.tol2bus.snoop_fanout::2                      0      0.00%    100.00% # Request fanout histogram
system.tol2bus.snoop_fanout::3                      0      0.00%    100.00% # Request fanout histogram
system.tol2bus.snoop_fanout::4                      0      0.00%    100.00% # Request fanout histogram
system.tol2bus.snoop_fanout::overflows              0      0.00%    100.00% # Request fanout histogram
system.tol2bus.snoop_fanout::min_value              0                       # Request fanout histogram
system.tol2bus.snoop_fanout::max_value              1                       # Request fanout histogram
system.tol2bus.snoop_fanout::total             947461                       # Request fanout histogram
system.tol2bus.power_state.pwrStateResidencyTicks::UNDEFINED   7199732400                       # Cumulative time (in ticks) in various power states
system.tol2bus.reqLayer0.occupancy          941277786                       # Layer occupancy (ticks)
system.tol2bus.reqLayer0.utilization             13.1                       # Layer utilization (%)
system.tol2bus.respLayer0.occupancy             68000                       # Layer occupancy (ticks)
system.tol2bus.respLayer0.utilization             0.0                       # Layer utilization (%)
system.tol2bus.respLayer1.occupancy         784376000                       # Layer occupancy (ticks)
system.tol2bus.respLayer1.utilization            10.9                       # Layer utilization (%)
system.voltage_domain.voltage                       1                       # Voltage in Volts

---------- End Simulation Statistics   ----------
